1
    SWAT Dec 23 2016    VER 2016/Rev 664                                                                 0/ 0/   0      0: 0: 0

    General Input/Output section (file.cio):                                        
    12/4/2021 12:00:00 AM ARCGIS-SWAT interface AV                                  
                                                                                    


       SUB      GIS  MON   AREAkm2  PRECIPmm SNOMELTmm     PETmm      ETmm      SWmm    PERCmm    SURQmm    GW_Qmm    WYLDmm  SYLDt/ha ORGNkg/ha ORGPkg/haNSURQkg/ha SOLPkg/ha SEDPkg/ha LAT Q(mm)LATNO3kg/hGWNO3kg/haCHOLAmic/LCBODU mg/L DOXQ mg/L TNO3kg/ha   QTILEmm TVAPkg/ha
BIGSUB   1        0    1.31032E+03   227.500     0.000   116.293    74.874    47.800    84.393    26.728     0.043    41.983    60.548    30.774     3.774     0.002     0.001     2.669    14.939     0.225     0.000 .00000E+00 0.000E+00 0.000E+00 0.000E+00 0.000E+00 0.000E+00
BIGSUB   2        0    1.24266E+03    81.300     0.000   110.480    46.576    44.759     0.055     0.000     0.000     1.147     0.000     0.000     0.000     0.000     0.000     0.000     1.044     0.047     0.000 .00000E+00 0.000E+00 0.000E+00 0.000E+00 0.000E+00 0.000E+00
BIGSUB   3        0    1.16038E+03    52.800     0.000    70.701    47.534    50.439     2.719     0.148     4.372     8.574     0.033     0.042     0.004     0.002     0.000     0.010     3.841     0.091     0.005 .00000E+00 0.000E+00 0.000E+00 0.000E+00 0.000E+00 0.000E+00
BIGSUB   4        0    1.74275E+03   134.500     0.000    97.305    64.885    52.098    34.733    10.827     0.510    24.737     7.316     5.506     0.690     0.010     0.004     0.770    13.112     0.168     0.000 .00000E+00 0.000E+00 0.000E+00 0.000E+00 0.000E+00 0.000E+00
BIGSUB   5        0    1.24150E+03    81.300     0.000   111.812    47.575    44.551     0.037     0.000     0.000     1.337     0.000     0.000     0.000     0.000     0.000     0.000     1.263     0.038     0.000 .00000E+00 0.000E+00 0.000E+00 0.000E+00 0.000E+00 0.000E+00
BIGSUB   6        0    1.36594E+03   134.500     0.000    96.991    66.020    51.581    49.306     9.730     0.942    15.337    10.138     9.920     1.229     0.005     0.002     0.882     4.239     0.084     0.000 .00000E+00 0.000E+00 0.000E+00 0.000E+00 0.000E+00 0.000E+00
BIGSUB   7        0    1.12040E+03    81.300     0.000   109.219    48.969    45.766     0.508     0.139     0.000     1.354     0.201     0.249     0.030     0.000     0.000     0.022     1.103     0.050     0.000 .00000E+00 0.000E+00 0.000E+00 0.000E+00 0.000E+00 0.000E+00
BIGSUB   8        0    1.40121E+03    85.800     0.000   100.679    42.317    61.511     8.994     0.628     0.000     2.454     0.054     0.279     0.034     0.004     0.000     0.023     1.688     0.108     0.000 .00000E+00 0.000E+00 0.000E+00 0.000E+00 0.000E+00 0.000E+00
BIGSUB   9        0    1.39891E+03   109.300     0.000   102.190    58.681    75.694     4.762     1.117     0.000     5.020     0.022     0.183     0.024     0.012     0.002     0.016     3.798     0.199     0.000 .00000E+00 0.000E+00 0.000E+00 0.000E+00 0.000E+00 0.000E+00
BIGSUB  10        0    1.40511E+03   227.500     0.000   116.282    73.848    50.592    72.602    35.269     0.111    58.906    40.977    23.121     2.853     0.004     0.002     2.445    23.290     0.229     0.000 .00000E+00 0.000E+00 0.000E+00 0.000E+00 0.000E+00 0.000E+00
BIGSUB  11        0    1.21116E+03    81.300     0.000   110.578    49.012    46.846     0.264     0.200     0.000     1.462     0.024     0.031     0.003     0.001     0.000     0.010     1.151     0.061     0.000 .00000E+00 0.000E+00 0.000E+00 0.000E+00 0.000E+00 0.000E+00
BIGSUB   1        0    2.31032E+03   165.200     0.000    83.679    81.809    46.725    64.642     1.301    30.527    58.945     2.725     0.730     0.090     0.001     0.000     0.064    26.348     0.309     0.032 .00000E+00 0.000E+00 0.000E+00 0.000E+00 0.000E+00 0.000E+00
BIGSUB   2        0    2.24266E+03   125.500     0.000    79.802    78.464    53.675    30.201     0.057     0.116     7.821     0.014     0.040     0.005     0.000     0.000     0.003     7.529     0.950     0.000 .00000E+00 0.000E+00 0.000E+00 0.000E+00 0.000E+00 0.000E+00
BIGSUB   3        0    2.16038E+03    82.300     0.000    65.006    61.669    48.960    15.166     0.722     8.826    16.293     0.186     0.412     0.044     0.009     0.000     0.057     6.445     0.269     0.006 .00000E+00 0.000E+00 0.000E+00 0.000E+00 0.000E+00 0.000E+00
BIGSUB   4        0    2.74275E+03   179.200     0.000    76.872    75.194    51.153    65.184     8.944    16.869    60.136    10.822     4.436     0.562     0.004     0.003     0.665    33.829     0.335     0.016 .00000E+00 0.000E+00 0.000E+00 0.000E+00 0.000E+00 0.000E+00
BIGSUB   5        0    2.24150E+03   125.500     0.000    81.122    79.343    73.091    10.358     0.088     0.023     7.222     0.008     0.034     0.004     0.001     0.000     0.003     7.043     0.546     0.000 .00000E+00 0.000E+00 0.000E+00 0.000E+00 0.000E+00 0.000E+00
BIGSUB   6        0    2.36594E+03   179.200     0.000    76.583    75.134    50.350    90.253     8.320    26.235    51.724    15.478     7.498     0.932     0.002     0.001     0.676    16.460     0.157     0.024 .00000E+00 0.000E+00 0.000E+00 0.000E+00 0.000E+00 0.000E+00
BIGSUB   7        0    2.12040E+03   125.500     0.000    78.552    77.176    46.768    38.090     0.412     0.287     9.287     0.698     0.634     0.078     0.000     0.000     0.055     8.444     0.992     0.001 .00000E+00 0.000E+00 0.000E+00 0.000E+00 0.000E+00 0.000E+00
BIGSUB   8        0    2.40121E+03   145.700     0.000    67.312    67.008    74.205    50.960     1.066     4.080    19.091     0.018     0.169     0.020     0.010     0.001     0.017    13.732     0.777     0.012 .00000E+00 0.000E+00 0.000E+00 0.000E+00 0.000E+00 0.000E+00
BIGSUB   9        0    2.39891E+03   118.600     0.000    75.481    75.423    86.736    19.587     0.700     1.331    15.440     0.003     0.042     0.005     0.032     0.001     0.005    13.284     0.630     0.002 .00000E+00 0.000E+00 0.000E+00 0.000E+00 0.000E+00 0.000E+00
BIGSUB  10        0    2.40511E+03   165.200     0.000    83.668    81.672    49.554    56.595     3.464    25.626    59.664     3.060     0.622     0.077     0.002     0.000     0.094    29.909     0.472     0.068 .00000E+00 0.000E+00 0.000E+00 0.000E+00 0.000E+00 0.000E+00
BIGSUB  11        0    2.21116E+03   125.500     0.000    79.899    78.230    49.953    36.400     0.625     0.200     7.938     0.086     0.086     0.010     0.004     0.000     0.025     6.977     0.612     0.001 .00000E+00 0.000E+00 0.000E+00 0.000E+00 0.000E+00 0.000E+00
BIGSUB   1        0    3.31032E+03   240.500     0.000    89.998    83.534    46.128   103.087    25.294    64.353   120.442    86.799    14.313     1.753     0.122     0.001     1.259    29.192     0.324     0.113 .00000E+00 0.000E+00 0.000E+00 0.000E+00 0.000E+00 0.000E+00
BIGSUB   2        0    3.24266E+03   156.000     0.000    69.044    66.549    55.036    67.260     5.503    14.990    35.988     5.530    12.128     1.450     0.007     0.002     1.000    15.074     0.886     0.058 .00000E+00 0.000E+00 0.000E+00 0.000E+00 0.000E+00 0.000E+00
BIGSUB   3        0    3.16038E+03    64.700     0.000    68.704    58.535    45.516     6.084     0.175    10.097    14.132     0.047     0.050     0.005     0.002     0.000     0.013     3.471     0.152     0.007 .00000E+00 0.000E+00 0.000E+00 0.000E+00 0.000E+00 0.000E+00
BIGSUB   4        0    3.74275E+03   183.200     0.000    82.128    75.797    50.974    62.724    15.701    42.301    88.571    15.693     6.176     0.785     0.303     0.004     0.895    29.490     0.303     0.038 .00000E+00 0.000E+00 0.000E+00 0.000E+00 0.000E+00 0.000E+00
BIGSUB   5        0    3.24150E+03   156.000     0.000    70.062    68.035    79.473    53.136     8.307     5.713    33.979     2.640     7.283     0.869     0.013     0.003     0.665    19.740     1.072     0.017 .00000E+00 0.000E+00 0.000E+00 0.000E+00 0.000E+00 0.000E+00
BIGSUB   6        0    3.36594E+03   183.200     0.000    81.877    75.606    50.173    88.111    13.279    61.389    90.481    21.009     9.641     1.202     0.510     0.001     0.883    14.292     0.282     0.053 .00000E+00 0.000E+00 0.000E+00 0.000E+00 0.000E+00 0.000E+00
BIGSUB   7        0    3.12040E+03   156.000     0.000    68.079    65.773    47.061    69.598     5.179    18.976    39.606     7.719    12.305     1.488     0.003     0.001     1.033    14.953     0.765     0.052 .00000E+00 0.000E+00 0.000E+00 0.000E+00 0.000E+00 0.000E+00
BIGSUB   8        0    3.40121E+03   101.300     0.000    72.984    69.874    72.997    23.576     2.505    21.088    31.925     0.213     1.056     0.128     0.007     0.002     0.096     7.747     0.225     0.045 .00000E+00 0.000E+00 0.000E+00 0.000E+00 0.000E+00 0.000E+00
BIGSUB   9        0    3.39891E+03   155.100     0.000    63.757    63.385    87.818    55.992     8.094    11.744    46.313     0.095     0.789     0.101     0.037     0.005     0.080    26.115     0.229     0.011 .00000E+00 0.000E+00 0.000E+00 0.000E+00 0.000E+00 0.000E+00
BIGSUB  10        0    3.40511E+03   240.500     0.000    89.988    84.798    48.824    87.609    33.300    54.405   124.722    49.492     8.109     0.996     0.639     0.001     0.902    35.632     0.813     0.313 .00000E+00 0.000E+00 0.000E+00 0.000E+00 0.000E+00 0.000E+00
BIGSUB  11        0    3.21116E+03   156.000     0.000    69.119    66.846    50.272    69.531     7.211    17.896    37.529     2.957     6.524     0.788     0.007     0.004     0.678    11.943     0.599     0.054 .00000E+00 0.000E+00 0.000E+00 0.000E+00 0.000E+00 0.000E+00
BIGSUB   1        0    4.31032E+03    44.200     0.000    72.888    48.178    31.906     7.609     0.000    68.480    75.613     0.000     0.000     0.000     0.000     0.000     0.000     4.980     0.039     0.094 .00000E+00 0.000E+00 0.000E+00 0.000E+00 0.000E+00 0.000E+00
BIGSUB   2        0    4.24266E+03    40.600     0.000    62.583    48.196    39.484     6.204     0.004    31.707    35.555     0.000     0.001     0.000     0.000     0.000     0.000     3.008     0.086     0.083 .00000E+00 0.000E+00 0.000E+00 0.000E+00 0.000E+00 0.000E+00
BIGSUB   3        0    4.16038E+03    12.000     0.000    83.186    49.833     7.520     0.000     0.000     6.362     7.010     0.000     0.000     0.000     0.000     0.000     0.000     0.271     0.009     0.004 .00000E+00 0.000E+00 0.000E+00 0.000E+00 0.000E+00 0.000E+00
BIGSUB   4        0    4.74275E+03    29.100     0.000    72.173    47.796    29.019     1.546     0.190    44.612    48.868     0.107     0.009     0.001     0.029     0.000     0.004     2.637     0.073     0.067 .00000E+00 0.000E+00 0.000E+00 0.000E+00 0.000E+00 0.000E+00
BIGSUB   5        0    4.24150E+03    40.600     0.000    63.426    50.826    61.884     5.031     0.010    18.416    22.430     0.000     0.004     0.000     0.000     0.000     0.000     3.467     0.113     0.034 .00000E+00 0.000E+00 0.000E+00 0.000E+00 0.000E+00 0.000E+00
BIGSUB   6        0    4.36594E+03    29.100     0.000    71.984    47.281    27.159     2.502     0.309    63.235    68.059     0.281     0.019     0.002     0.000     0.000     0.002     2.504     0.086     0.101 .00000E+00 0.000E+00 0.000E+00 0.000E+00 0.000E+00 0.000E+00
BIGSUB   7        0    4.12040E+03    40.600     0.000    61.785    49.865    29.805     6.218     0.035    35.455    39.513     0.047     0.029     0.004     0.000     0.000     0.003     3.092     0.103     0.079 .00000E+00 0.000E+00 0.000E+00 0.000E+00 0.000E+00 0.000E+00
BIGSUB   8        0    4.40121E+03    27.800     0.000    76.441    61.916    37.871     0.573     0.000    21.816    23.368     0.000     0.000     0.000     0.000     0.000     0.000     0.795     0.042     0.022 .00000E+00 0.000E+00 0.000E+00 0.000E+00 0.000E+00 0.000E+00
BIGSUB   9        0    4.39891E+03    25.500     0.000    55.583    50.168    62.701     0.000     0.000    23.550    26.034     0.000     0.000     0.000     0.000     0.000     0.000     1.810     0.004     0.007 .00000E+00 0.000E+00 0.000E+00 0.000E+00 0.000E+00 0.000E+00
BIGSUB  10        0    4.40511E+03    44.200     0.000    72.882    49.456    33.833     6.139     0.065    58.172    65.066     0.030     0.001     0.000     0.000     0.000     0.000     4.978     0.086     0.270 .00000E+00 0.000E+00 0.000E+00 0.000E+00 0.000E+00 0.000E+00
BIGSUB  11        0    4.21116E+03    40.600     0.000    62.645    51.274    32.022     6.151     0.006    34.731    37.934     0.001     0.000     0.000     0.000     0.000     0.000     2.285     0.073     0.081 .00000E+00 0.000E+00 0.000E+00 0.000E+00 0.000E+00 0.000E+00
BIGSUB   1        0    5.31032E+03     7.300     0.000   108.724    19.807    19.329     0.000     0.000    41.602    43.817     0.000     0.000     0.000     0.000     0.000     0.000     0.079     0.001     0.025 .00000E+00 0.000E+00 0.000E+00 0.000E+00 0.000E+00 0.000E+00
BIGSUB   2        0    5.24266E+03     5.600     0.000    94.322    30.581    14.472     0.000     0.000    21.995    22.981     0.000     0.000     0.000     0.000     0.000     0.000     0.066     0.009     0.024 .00000E+00 0.000E+00 0.000E+00 0.000E+00 0.000E+00 0.000E+00
BIGSUB   3        0    5.16038E+03     0.600     0.000    96.013     5.094     3.027     0.000     0.000     0.319     0.653     0.000     0.000     0.000     0.000     0.000     0.000     0.005     0.000     0.000 .00000E+00 0.000E+00 0.000E+00 0.000E+00 0.000E+00 0.000E+00
BIGSUB   4        0    5.74275E+03     5.700     0.000    94.334    18.814    15.823     0.000     0.000    26.420    27.929     0.000     0.000     0.000     0.000     0.000     0.000     0.103     0.002     0.018 .00000E+00 0.000E+00 0.000E+00 0.000E+00 0.000E+00 0.000E+00
BIGSUB   5        0    5.24150E+03     5.600     0.000    95.380    34.257    33.189     0.000     0.000    14.782    15.464     0.000     0.000     0.000     0.000     0.000     0.000     0.060     0.004     0.011 .00000E+00 0.000E+00 0.000E+00 0.000E+00 0.000E+00 0.000E+00
BIGSUB   6        0    5.36594E+03     5.700     0.000    94.122    17.964    13.994     0.000     0.000    37.884    39.940     0.000     0.000     0.000     0.000     0.000     0.000     0.076     0.002     0.028 .00000E+00 0.000E+00 0.000E+00 0.000E+00 0.000E+00 0.000E+00
BIGSUB   7        0    5.12040E+03     5.600     0.000    93.323    28.045     7.326     0.000     0.000    23.724    24.800     0.000     0.000     0.000     0.000     0.000     0.000     0.068     0.009     0.023 .00000E+00 0.000E+00 0.000E+00 0.000E+00 0.000E+00 0.000E+00
BIGSUB   8        0    5.40121E+03     2.700     0.000    87.398    34.819     5.751     0.000     0.000    12.137    12.883     0.000     0.000     0.000     0.000     0.000     0.000     0.024     0.001     0.005 .00000E+00 0.000E+00 0.000E+00 0.000E+00 0.000E+00 0.000E+00
BIGSUB   9        0    5.39891E+03     5.400     0.000    74.368    47.714    20.345     0.000     0.000    15.927    16.695     0.000     0.000     0.000     0.000     0.000     0.000     0.050     0.000     0.002 .00000E+00 0.000E+00 0.000E+00 0.000E+00 0.000E+00 0.000E+00
BIGSUB  10        0    5.40511E+03     7.300     0.000   108.717    18.011    23.002     0.000     0.000    35.098    37.085     0.000     0.000     0.000     0.000     0.000     0.000     0.155     0.005     0.071 .00000E+00 0.000E+00 0.000E+00 0.000E+00 0.000E+00 0.000E+00
BIGSUB  11        0    5.21116E+03     5.600     0.000    94.400    29.979     7.612     0.000     0.000    23.440    24.503     0.000     0.000     0.000     0.000     0.000     0.000     0.070     0.004     0.024 .00000E+00 0.000E+00 0.000E+00 0.000E+00 0.000E+00 0.000E+00
BIGSUB   1        0    6.31032E+03    33.400     0.000    65.255    22.667    29.374     0.000     0.000    17.104    19.423     0.000     0.000     0.000     0.000     0.000     0.000     0.614     0.001     0.004 .00000E+00 0.000E+00 0.000E+00 0.000E+00 0.000E+00 0.000E+00
BIGSUB   2        0    6.24266E+03    17.500     0.000    56.961    16.576    15.207     0.000     0.000     8.681     9.624     0.000     0.000     0.000     0.000     0.000     0.000     0.182     0.030     0.004 .00000E+00 0.000E+00 0.000E+00 0.000E+00 0.000E+00 0.000E+00
BIGSUB   3        0    6.16038E+03    11.000     0.000    81.400     7.283     6.443     0.000     0.000     0.018     0.534     0.000     0.000     0.000     0.000     0.000     0.000     0.266     0.002     0.000 .00000E+00 0.000E+00 0.000E+00 0.000E+00 0.000E+00 0.000E+00
BIGSUB   4        0    6.74275E+03    17.200     0.000    70.990    15.024    17.418     0.000     0.000     9.494    11.198     0.000     0.000     0.000     0.000     0.000     0.000     0.584     0.004     0.003 .00000E+00 0.000E+00 0.000E+00 0.000E+00 0.000E+00 0.000E+00
BIGSUB   5        0    6.24150E+03    17.500     0.000    57.470    18.635    31.845     0.000     0.000     5.350     6.074     0.000     0.000     0.000     0.000     0.000     0.000     0.204     0.014     0.002 .00000E+00 0.000E+00 0.000E+00 0.000E+00 0.000E+00 0.000E+00
BIGSUB   6        0    6.36594E+03    17.200     0.000    70.898    15.556    15.543     0.000     0.022    14.713    16.510     0.018     0.001     0.000     0.000     0.000     0.000     0.199     0.001     0.004 .00000E+00 0.000E+00 0.000E+00 0.000E+00 0.000E+00 0.000E+00
BIGSUB   7        0    6.12040E+03    17.500     0.000    56.481    14.302    10.319     0.000     0.000     9.360    10.383     0.000     0.000     0.000     0.000     0.000     0.000     0.194     0.029     0.004 .00000E+00 0.000E+00 0.000E+00 0.000E+00 0.000E+00 0.000E+00
BIGSUB   8        0    6.40121E+03     7.600     0.000    71.003    10.280     3.032     0.000     0.000     1.816     2.428     0.000     0.000     0.000     0.000     0.000     0.000     0.044     0.000     0.000 .00000E+00 0.000E+00 0.000E+00 0.000E+00 0.000E+00 0.000E+00
BIGSUB   9        0    6.39891E+03    19.500     0.000    49.926    22.994    16.549     0.000     0.000     5.658     6.534     0.000     0.000     0.000     0.000     0.000     0.000     0.290     0.003     0.000 .00000E+00 0.000E+00 0.000E+00 0.000E+00 0.000E+00 0.000E+00
BIGSUB  10        0    6.40511E+03    33.400     0.000    65.252    22.078    33.028     0.000     0.129    13.904    16.617     0.042     0.002     0.000     0.001     0.000     0.001     1.123     0.003     0.012 .00000E+00 0.000E+00 0.000E+00 0.000E+00 0.000E+00 0.000E+00
BIGSUB  11        0    6.21116E+03    17.500     0.000    56.999    13.796    11.142     0.000     0.000     9.335    10.323     0.000     0.000     0.000     0.000     0.000     0.000     0.170     0.013     0.004 .00000E+00 0.000E+00 0.000E+00 0.000E+00 0.000E+00 0.000E+00
BIGSUB   1        0    7.31032E+03     0.200     0.000   129.570    17.828    11.746     0.000     0.000     0.985     2.468     0.000     0.000     0.000     0.000     0.000     0.000     0.114     0.000     0.000 .00000E+00 0.000E+00 0.000E+00 0.000E+00 0.000E+00 0.000E+00
BIGSUB   2        0    7.24266E+03     0.200     0.000   111.762    10.951     4.456     0.000     0.000     0.271     0.922     0.000     0.000     0.000     0.000     0.000     0.000     0.031     0.002     0.000 .00000E+00 0.000E+00 0.000E+00 0.000E+00 0.000E+00 0.000E+00
BIGSUB   3        0    7.16038E+03     0.900     0.000   107.358     4.802     2.541     0.000     0.000     0.000     0.234     0.000     0.000     0.000     0.000     0.000     0.000     0.037     0.002     0.000 .00000E+00 0.000E+00 0.000E+00 0.000E+00 0.000E+00 0.000E+00
BIGSUB   4        0    7.74275E+03     0.200     0.000   120.306    11.382     6.237     0.000     0.000     0.436     1.360     0.000     0.000     0.000     0.000     0.000     0.000     0.025     0.002     0.000 .00000E+00 0.000E+00 0.000E+00 0.000E+00 0.000E+00 0.000E+00
BIGSUB   5        0    7.24150E+03     0.200     0.000   112.506    18.319    13.726     0.000     0.000     0.164     0.616     0.000     0.000     0.000     0.000     0.000     0.000     0.026     0.001     0.000 .00000E+00 0.000E+00 0.000E+00 0.000E+00 0.000E+00 0.000E+00
BIGSUB   6        0    7.36594E+03     0.200     0.000   120.184    11.831     3.082     0.000     0.000     0.683     1.969     0.000     0.000     0.000     0.000     0.000     0.000     0.023     0.001     0.000 .00000E+00 0.000E+00 0.000E+00 0.000E+00 0.000E+00 0.000E+00
BIGSUB   7        0    7.12040E+03     0.200     0.000   111.060     8.047     2.472     0.000     0.000     0.365     1.075     0.000     0.000     0.000     0.000     0.000     0.000     0.036     0.002     0.000 .00000E+00 0.000E+00 0.000E+00 0.000E+00 0.000E+00 0.000E+00
BIGSUB   8        0    7.40121E+03     0.200     0.000   102.566     1.798     1.434     0.000     0.000     0.002     0.458     0.000     0.000     0.000     0.000     0.000     0.000     0.002     0.000     0.000 .00000E+00 0.000E+00 0.000E+00 0.000E+00 0.000E+00 0.000E+00
BIGSUB   9        0    7.39891E+03     0.300     0.000    97.425     9.234     7.615     0.000     0.000     0.149     0.656     0.000     0.000     0.000     0.000     0.000     0.000     0.032     0.001     0.000 .00000E+00 0.000E+00 0.000E+00 0.000E+00 0.000E+00 0.000E+00
BIGSUB  10        0    7.40511E+03     0.200     0.000   129.566    17.092    16.136     0.000     0.000     0.789     2.049     0.000     0.000     0.000     0.000     0.000     0.000     0.088     0.001     0.000 .00000E+00 0.000E+00 0.000E+00 0.000E+00 0.000E+00 0.000E+00
BIGSUB  11        0    7.21116E+03     0.200     0.000   111.816     7.582     3.760     0.000     0.000     0.337     1.025     0.000     0.000     0.000     0.000     0.000     0.000     0.023     0.001     0.000 .00000E+00 0.000E+00 0.000E+00 0.000E+00 0.000E+00 0.000E+00
BIGSUB   1        0    8.31032E+03    16.500     0.000    89.577    17.668    10.394     0.000     0.000     0.000     1.193     0.000     0.000     0.000     0.000     0.000     0.000     0.162     0.001     0.000 .00000E+00 0.000E+00 0.000E+00 0.000E+00 0.000E+00 0.000E+00
BIGSUB   2        0    8.24266E+03    15.100     0.000    83.567    14.989     4.431     0.000     0.000     0.000     0.589     0.000     0.000     0.000     0.000     0.000     0.000     0.120     0.013     0.000 .00000E+00 0.000E+00 0.000E+00 0.000E+00 0.000E+00 0.000E+00
BIGSUB   3        0    8.16038E+03    10.900     0.000    81.215     9.368     3.972     0.000     0.000     0.000     0.245     0.000     0.000     0.000     0.000     0.000     0.000     0.098     0.009     0.000 .00000E+00 0.000E+00 0.000E+00 0.000E+00 0.000E+00 0.000E+00
BIGSUB   4        0    8.74275E+03    13.400     0.000    79.469    13.201     6.304     0.000     0.000     0.000     0.800     0.000     0.000     0.000     0.000     0.000     0.000     0.125     0.083     0.000 .00000E+00 0.000E+00 0.000E+00 0.000E+00 0.000E+00 0.000E+00
BIGSUB   5        0    8.24150E+03    15.100     0.000    84.411    21.435     7.233     0.000     0.000     0.000     0.468     0.000     0.000     0.000     0.000     0.000     0.000     0.144     0.026     0.000 .00000E+00 0.000E+00 0.000E+00 0.000E+00 0.000E+00 0.000E+00
BIGSUB   6        0    8.36594E+03    13.400     0.000    79.287    13.852     2.562     0.000     0.000     0.000     0.978     0.000     0.000     0.000     0.000     0.000     0.000     0.028     0.019     0.000 .00000E+00 0.000E+00 0.000E+00 0.000E+00 0.000E+00 0.000E+00
BIGSUB   7        0    8.12040E+03    15.100     0.000    82.769    13.244     4.184     0.000     0.000     0.000     0.636     0.000     0.000     0.000     0.000     0.000     0.000     0.126     0.014     0.000 .00000E+00 0.000E+00 0.000E+00 0.000E+00 0.000E+00 0.000E+00
BIGSUB   8        0    8.40121E+03    10.000     0.000    90.009     9.841     1.552     0.000     0.000     0.000     0.377     0.000     0.000     0.000     0.000     0.000     0.000     0.037     0.002     0.000 .00000E+00 0.000E+00 0.000E+00 0.000E+00 0.000E+00 0.000E+00
BIGSUB   9        0    8.39891E+03    15.700     0.000    70.902    14.948     8.172     0.000     0.000     0.000     0.539     0.000     0.000     0.000     0.000     0.000     0.000     0.180     0.004     0.000 .00000E+00 0.000E+00 0.000E+00 0.000E+00 0.000E+00 0.000E+00
BIGSUB  10        0    8.40511E+03    16.500     0.000    89.571    16.908    15.381     0.000     0.000     0.000     1.217     0.000     0.000     0.000     0.000     0.000     0.000     0.335     0.003     0.000 .00000E+00 0.000E+00 0.000E+00 0.000E+00 0.000E+00 0.000E+00
BIGSUB  11        0    8.21116E+03    15.100     0.000    83.629    12.812     5.920     0.000     0.000     0.000     0.620     0.000     0.000     0.000     0.000     0.000     0.000     0.117     0.011     0.000 .00000E+00 0.000E+00 0.000E+00 0.000E+00 0.000E+00 0.000E+00
BIGSUB   1        0    9.31032E+03    28.200     0.000    98.348    26.008    12.176     0.000     0.000     0.000     1.154     0.000     0.000     0.000     0.000     0.000     0.000     0.410     0.001     0.000 .00000E+00 0.000E+00 0.000E+00 0.000E+00 0.000E+00 0.000E+00
BIGSUB   2        0    9.24266E+03    19.100     0.000    88.112    19.665     3.724     0.000     0.000     0.000     0.491     0.000     0.000     0.000     0.000     0.000     0.000     0.151     0.002     0.000 .00000E+00 0.000E+00 0.000E+00 0.000E+00 0.000E+00 0.000E+00
BIGSUB   3        0    9.16038E+03     9.300     0.000    86.429    10.467     2.764     0.000     0.000     0.000     0.150     0.000     0.000     0.000     0.000     0.000     0.000     0.044     0.005     0.000 .00000E+00 0.000E+00 0.000E+00 0.000E+00 0.000E+00 0.000E+00
BIGSUB   4        0    9.74275E+03    49.000     0.000    93.871    39.317    13.894     0.000     0.052     0.000     2.570     0.046     0.003     0.000     0.002     0.000     0.001     2.030     0.089     0.000 .00000E+00 0.000E+00 0.000E+00 0.000E+00 0.000E+00 0.000E+00
BIGSUB   5        0    9.24150E+03    19.100     0.000    89.045    21.004     5.159     0.000     0.000     0.000     0.414     0.000     0.000     0.000     0.000     0.000     0.000     0.179     0.003     0.000 .00000E+00 0.000E+00 0.000E+00 0.000E+00 0.000E+00 0.000E+00
BIGSUB   6        0    9.36594E+03    49.000     0.000    93.673    39.360    12.046     0.000     0.160     0.000     1.505     0.237     0.013     0.002     0.000     0.000     0.001     0.659     0.030     0.000 .00000E+00 0.000E+00 0.000E+00 0.000E+00 0.000E+00 0.000E+00
BIGSUB   7        0    9.12040E+03    19.100     0.000    87.230    19.528     3.606     0.000     0.000     0.000     0.529     0.000     0.000     0.000     0.000     0.000     0.000     0.160     0.003     0.000 .00000E+00 0.000E+00 0.000E+00 0.000E+00 0.000E+00 0.000E+00
BIGSUB   8        0    9.40121E+03    13.700     0.000    77.942    14.122     1.102     0.000     0.000     0.000     0.276     0.000     0.000     0.000     0.000     0.000     0.000     0.031     0.002     0.000 .00000E+00 0.000E+00 0.000E+00 0.000E+00 0.000E+00 0.000E+00
BIGSUB   9        0    9.39891E+03    16.700     0.000    66.964    18.387     6.347     0.000     0.000     0.000     0.410     0.000     0.000     0.000     0.000     0.000     0.000     0.150     0.001     0.000 .00000E+00 0.000E+00 0.000E+00 0.000E+00 0.000E+00 0.000E+00
BIGSUB  10        0    9.40511E+03    28.200     0.000    98.341    25.364    17.480     0.000     0.000     0.000     1.377     0.000     0.000     0.000     0.000     0.000     0.000     0.740     0.002     0.000 .00000E+00 0.000E+00 0.000E+00 0.000E+00 0.000E+00 0.000E+00
BIGSUB  11        0    9.21116E+03    19.100     0.000    88.180    19.654     5.231     0.000     0.000     0.000     0.506     0.000     0.000     0.000     0.000     0.000     0.000     0.141     0.003     0.000 .00000E+00 0.000E+00 0.000E+00 0.000E+00 0.000E+00 0.000E+00
BIGSUB   1        0   10.31032E+03    40.600     0.000   103.921    30.356    21.577     0.000     0.000     0.000     1.303     0.000     0.000     0.000     0.000     0.000     0.000     0.733     0.001     0.000 .00000E+00 0.000E+00 0.000E+00 0.000E+00 0.000E+00 0.000E+00
BIGSUB   2        0   10.24266E+03    35.300     0.000    88.723    28.700     9.870     0.000     0.000     0.000     0.655     0.000     0.000     0.000     0.000     0.000     0.000     0.394     0.002     0.000 .00000E+00 0.000E+00 0.000E+00 0.000E+00 0.000E+00 0.000E+00
BIGSUB   3        0   10.16038E+03    47.600     0.000    75.918    24.962    24.013     0.000     0.025     0.000     1.266     0.001     0.002     0.000     0.000     0.000     0.000     1.159     0.022     0.000 .00000E+00 0.000E+00 0.000E+00 0.000E+00 0.000E+00 0.000E+00
BIGSUB   4        0   10.74275E+03    60.300     0.000    90.954    39.982    30.105     0.000     1.795     0.000     4.362     2.072     0.137     0.017     0.009     0.000     0.052     2.193     0.028     0.000 .00000E+00 0.000E+00 0.000E+00 0.000E+00 0.000E+00 0.000E+00
BIGSUB   5        0   10.24150E+03    35.300     0.000    89.972    29.312    10.637     0.000     0.000     0.000     0.649     0.000     0.000     0.000     0.000     0.000     0.000     0.469     0.002     0.000 .00000E+00 0.000E+00 0.000E+00 0.000E+00 0.000E+00 0.000E+00
BIGSUB   6        0   10.36594E+03    60.300     0.000    90.659    40.975    30.853     0.000     1.018     0.000     2.251     1.703     0.091     0.011     0.000     0.000     0.008     0.707     0.016     0.000 .00000E+00 0.000E+00 0.000E+00 0.000E+00 0.000E+00 0.000E+00
BIGSUB   7        0   10.12040E+03    35.300     0.000    87.541    27.397    11.030     0.000     0.000     0.000     0.697     0.000     0.000     0.000     0.000     0.000     0.000     0.413     0.002     0.000 .00000E+00 0.000E+00 0.000E+00 0.000E+00 0.000E+00 0.000E+00
BIGSUB   8        0   10.40121E+03    18.800     0.000    99.460    19.558     0.261     0.000     0.000     0.000     0.272     0.000     0.000     0.000     0.000     0.000     0.000     0.084     0.003     0.000 .00000E+00 0.000E+00 0.000E+00 0.000E+00 0.000E+00 0.000E+00
BIGSUB   9        0   10.39891E+03    41.100     0.000    74.302    33.387    13.326     0.000     0.000     0.000     0.892     0.000     0.000     0.000     0.000     0.000     0.000     0.693     0.001     0.000 .00000E+00 0.000E+00 0.000E+00 0.000E+00 0.000E+00 0.000E+00
BIGSUB  10        0   10.40511E+03    40.600     0.000   103.909    29.807    26.221     0.000     0.648     0.000     2.483     0.603     0.024     0.003     0.003     0.000     0.009     1.346     0.002     0.000 .00000E+00 0.000E+00 0.000E+00 0.000E+00 0.000E+00 0.000E+00
BIGSUB  11        0   10.21116E+03    35.300     0.000    88.815    27.764    12.348     0.000     0.006     0.000     0.663     0.001     0.000     0.000     0.000     0.000     0.000     0.377     0.002     0.000 .00000E+00 0.000E+00 0.000E+00 0.000E+00 0.000E+00 0.000E+00
BIGSUB   1        0   11.31032E+03    34.800     0.000   102.255    40.606    15.386     0.000     0.000     0.000     0.885     0.000     0.000     0.000     0.000     0.000     0.000     0.477     0.001     0.000 .00000E+00 0.000E+00 0.000E+00 0.000E+00 0.000E+00 0.000E+00
BIGSUB   2        0   11.24266E+03    30.300     0.000    95.153    34.838     5.132     0.000     0.000     0.000     0.432     0.000     0.000     0.000     0.000     0.000     0.000     0.245     0.001     0.000 .00000E+00 0.000E+00 0.000E+00 0.000E+00 0.000E+00 0.000E+00
BIGSUB   3        0   11.16038E+03    48.500     0.000    73.278    48.363    22.874     0.000     0.000     0.000     1.362     0.000     0.000     0.000     0.000     0.000     0.000     1.304     0.005     0.000 .00000E+00 0.000E+00 0.000E+00 0.000E+00 0.000E+00 0.000E+00
BIGSUB   4        0   11.74275E+03    43.300     0.000   103.071    50.324    21.795     0.000     0.000     0.000     1.628     0.000     0.000     0.000     0.000     0.000     0.000     1.361     0.020     0.000 .00000E+00 0.000E+00 0.000E+00 0.000E+00 0.000E+00 0.000E+00
BIGSUB   5        0   11.24150E+03    30.300     0.000    96.598    33.998     6.703     0.000     0.000     0.000     0.392     0.000     0.000     0.000     0.000     0.000     0.000     0.263     0.002     0.000 .00000E+00 0.000E+00 0.000E+00 0.000E+00 0.000E+00 0.000E+00
BIGSUB   6        0   11.36594E+03    43.300     0.000   102.742    51.545    21.562     0.000     0.054     0.000     0.967     0.045     0.002     0.000     0.000     0.000     0.000     0.537     0.008     0.000 .00000E+00 0.000E+00 0.000E+00 0.000E+00 0.000E+00 0.000E+00
BIGSUB   7        0   11.12040E+03    30.300     0.000    93.782    33.501     7.615     0.000     0.000     0.000     0.467     0.000     0.000     0.000     0.000     0.000     0.000     0.264     0.002     0.000 .00000E+00 0.000E+00 0.000E+00 0.000E+00 0.000E+00 0.000E+00
BIGSUB   8        0   11.40121E+03    36.800     0.000   108.424    29.992     6.678     0.000     0.000     0.000     0.496     0.000     0.000     0.000     0.000     0.000     0.000     0.361     0.004     0.000 .00000E+00 0.000E+00 0.000E+00 0.000E+00 0.000E+00 0.000E+00
BIGSUB   9        0   11.39891E+03    53.900     0.000    81.739    55.074    11.251     0.000     0.000     0.000     1.023     0.000     0.000     0.000     0.000     0.000     0.000     0.881     0.001     0.000 .00000E+00 0.000E+00 0.000E+00 0.000E+00 0.000E+00 0.000E+00
BIGSUB  10        0   11.40511E+03    34.800     0.000   102.242    39.670    20.612     0.000     0.000     0.000     1.124     0.000     0.000     0.000     0.000     0.000     0.000     0.775     0.002     0.000 .00000E+00 0.000E+00 0.000E+00 0.000E+00 0.000E+00 0.000E+00
BIGSUB  11        0   11.21116E+03    30.300     0.000    95.259    33.504     8.950     0.000     0.000     0.000     0.419     0.000     0.000     0.000     0.000     0.000     0.000     0.219     0.002     0.000 .00000E+00 0.000E+00 0.000E+00 0.000E+00 0.000E+00 0.000E+00
BIGSUB   1        0   12.31032E+03   144.000     0.000    97.983    80.962    40.660    27.451     0.031     0.109     9.670     0.083     0.009     0.001     0.000     0.000     0.001     9.181     0.138     0.000 .00000E+00 0.000E+00 0.000E+00 0.000E+00 0.000E+00 0.000E+00
BIGSUB   2        0   12.24266E+03    81.700     0.000    76.809    58.710    26.733     0.000     0.000     0.000     1.433     0.000     0.000     0.000     0.000     0.000     0.000     1.291     0.005     0.000 .00000E+00 0.000E+00 0.000E+00 0.000E+00 0.000E+00 0.000E+00
BIGSUB   3        0   12.16038E+03   102.700     0.000    79.015    71.664    43.506     4.813     0.127     0.000     5.613     0.008     0.012     0.001     0.000     0.000     0.004     5.434     0.066     0.000 .00000E+00 0.000E+00 0.000E+00 0.000E+00 0.000E+00 0.000E+00
BIGSUB   4        0   12.74275E+03   117.600     0.000    85.234    71.136    44.533    12.873     0.942     0.068    10.894     0.501     0.051     0.007     0.005     0.000     0.019     9.662     0.410     0.000 .00000E+00 0.000E+00 0.000E+00 0.000E+00 0.000E+00 0.000E+00
BIGSUB   5        0   12.24150E+03    81.700     0.000    77.985    59.048    27.799     0.000     0.000     0.000     1.590     0.000     0.000     0.000     0.000     0.000     0.000     1.491     0.011     0.000 .00000E+00 0.000E+00 0.000E+00 0.000E+00 0.000E+00 0.000E+00
BIGSUB   6        0   12.36594E+03   117.600     0.000    84.924    71.180    44.177    20.922     1.652     0.112     6.137     1.317     0.082     0.010     0.001     0.000     0.008     4.055     0.336     0.000 .00000E+00 0.000E+00 0.000E+00 0.000E+00 0.000E+00 0.000E+00
BIGSUB   7        0   12.12040E+03    81.700     0.000    75.696    57.684    30.115     0.000     0.000     0.000     1.548     0.000     0.000     0.000     0.000     0.000     0.000     1.393     0.010     0.000 .00000E+00 0.000E+00 0.000E+00 0.000E+00 0.000E+00 0.000E+00
BIGSUB   8        0   12.40121E+03   141.700     0.000    92.744    71.122    56.419    15.237     0.088     0.033     5.093     0.001     0.007     0.001     0.000     0.000     0.001     4.858     0.064     0.000 .00000E+00 0.000E+00 0.000E+00 0.000E+00 0.000E+00 0.000E+00
BIGSUB   9        0   12.39891E+03   128.200     0.000    83.325    73.428    58.878     2.218     0.000     0.000     4.767     0.000     0.000     0.000     0.000     0.000     0.000     4.656     0.002     0.000 .00000E+00 0.000E+00 0.000E+00 0.000E+00 0.000E+00 0.000E+00
BIGSUB  10        0   12.40511E+03   144.000     0.000    97.970    80.185    43.467    25.093     1.832     0.226    15.780     1.083     0.072     0.010     0.001     0.000     0.023    13.419     0.126     0.000 .00000E+00 0.000E+00 0.000E+00 0.000E+00 0.000E+00 0.000E+00
BIGSUB  11        0   12.21116E+03    81.700     0.000    76.896    58.672    30.670     0.000     0.000     0.000     1.387     0.000     0.000     0.000     0.000     0.000     0.000     1.234     0.009     0.000 .00000E+00 0.000E+00 0.000E+00 0.000E+00 0.000E+00 0.000E+00
BIGSUB   1        0 2048.31032E+03   982.400     0.000  1158.492   544.297    40.660   287.182    53.355   223.203   376.894   150.155    45.827     5.618     0.125     0.002     3.993    87.228     1.041     0.269 .00000E+00 0.000E+00 0.000E+00 0.000E+00 0.000E+00 0.000E+00
BIGSUB   2        0 2048.24266E+03   608.200     0.000  1017.317   454.794    26.733   103.720     5.564    77.759   117.639     5.544    12.169     1.455     0.007     0.002     1.004    29.136     2.033     0.169 .00000E+00 0.000E+00 0.000E+00 0.000E+00 0.000E+00 0.000E+00
BIGSUB   3        0 2048.16038E+03   443.300     0.000   968.224   399.573    43.506    28.782     1.197    29.994    56.065     0.274     0.518     0.055     0.013     0.001     0.085    22.376     0.632     0.022 .00000E+00 0.000E+00 0.000E+00 0.000E+00 0.000E+00 0.000E+00
BIGSUB   4        0 2048.74275E+03   832.700     0.000  1066.707   522.851    44.533   177.061    38.451   140.711   283.054    36.557    16.318     2.062     0.362     0.011     2.406    95.150     1.515     0.142 .00000E+00 0.000E+00 0.000E+00 0.000E+00 0.000E+00 0.000E+00
BIGSUB   5        0 2048.24150E+03   608.200     0.000  1029.789   481.788    27.799    68.562     8.406    44.448    90.635     2.648     7.320     0.874     0.013     0.003     0.669    34.346     1.832     0.064 .00000E+00 0.000E+00 0.000E+00 0.000E+00 0.000E+00 0.000E+00
BIGSUB   6        0 2048.36594E+03   832.700     0.000  1063.923   526.305    44.177   251.094    34.543   205.193   295.858    50.226    27.267     3.388     0.519     0.004     2.461    43.781     1.023     0.211 .00000E+00 0.000E+00 0.000E+00 0.000E+00 0.000E+00 0.000E+00
BIGSUB   7        0 2048.12040E+03   608.200     0.000  1005.517   443.531    30.115   114.414     5.766    88.167   129.895     8.666    13.217     1.600     0.003     0.001     1.113    30.246     1.981     0.159 .00000E+00 0.000E+00 0.000E+00 0.000E+00 0.000E+00 0.000E+00
BIGSUB   8        0 2048.40121E+03   592.100     0.000  1046.962   432.647    56.419    99.340     4.288    60.971    99.122     0.286     1.511     0.183     0.021     0.003     0.136    29.403     1.227     0.084 .00000E+00 0.000E+00 0.000E+00 0.000E+00 0.000E+00 0.000E+00
BIGSUB   9        0 2048.39891E+03   689.300     0.000   895.963   522.823    58.878    82.560     9.912    58.360   124.322     0.120     1.014     0.130     0.081     0.007     0.100    51.938     1.074     0.023 .00000E+00 0.000E+00 0.000E+00 0.000E+00 0.000E+00 0.000E+00
BIGSUB  10        0 2048.40511E+03   982.400     0.000  1158.388   538.888    43.467   248.038    74.708   188.331   386.088    95.286    31.952     3.940     0.650     0.003     3.475   111.790     1.744     0.734 .00000E+00 0.000E+00 0.000E+00 0.000E+00 0.000E+00 0.000E+00
BIGSUB  11        0 2048.21116E+03   608.200     0.000  1018.235   449.126    30.670   112.346     8.048    85.939   124.307     3.068     6.642     0.802     0.012     0.004     0.712    24.707     1.389     0.163 .00000E+00 0.000E+00 0.000E+00 0.000E+00 0.000E+00 0.000E+00
BIGSUB   1        0    1.31032E+03   301.400     0.000   105.740    98.460    46.312   140.349    17.290    25.868    80.333    64.560    24.944     3.061     0.070     0.001     2.158    36.461     0.229     0.017 .00000E+00 0.000E+00 0.000E+00 0.000E+00 0.000E+00 0.000E+00
BIGSUB   2        0    1.24266E+03   110.800     0.000    99.453    87.763    45.904     1.465     0.000     0.000     2.372     0.000     0.000     0.000     0.000     0.000     0.000     2.266     0.070     0.000 .00000E+00 0.000E+00 0.000E+00 0.000E+00 0.000E+00 0.000E+00
BIGSUB   3        0    1.16038E+03    52.300     0.000    84.174    56.066    38.479     0.000     0.004     0.126     1.577     0.000     0.000     0.000     0.000     0.000     0.000     1.378     0.028     0.000 .00000E+00 0.000E+00 0.000E+00 0.000E+00 0.000E+00 0.000E+00
BIGSUB   4        0    1.74275E+03   166.000     0.000    94.573    88.031    50.674    44.509     4.521     7.946    35.061     2.700     1.484     0.183     0.011     0.002     0.242    22.253     0.683     0.018 .00000E+00 0.000E+00 0.000E+00 0.000E+00 0.000E+00 0.000E+00
BIGSUB   5        0    1.24150E+03   110.800     0.000   100.857    86.426    49.078     0.520     0.000     0.000     2.546     0.000     0.000     0.000     0.000     0.000     0.000     2.474     0.080     0.000 .00000E+00 0.000E+00 0.000E+00 0.000E+00 0.000E+00 0.000E+00
BIGSUB   6        0    1.36594E+03   166.000     0.000    94.259    88.522    49.818    62.051     4.927    12.760    28.029     4.062     3.232     0.396     0.004     0.001     0.281     9.842     0.614     0.030 .00000E+00 0.000E+00 0.000E+00 0.000E+00 0.000E+00 0.000E+00
BIGSUB   7        0    1.12040E+03   110.800     0.000    98.125    87.679    45.508     4.746     0.142     0.000     2.910     0.145     0.145     0.018     0.000     0.000     0.013     2.649     0.090     0.000 .00000E+00 0.000E+00 0.000E+00 0.000E+00 0.000E+00 0.000E+00
BIGSUB   8        0    1.40121E+03   151.000     0.000    82.419    73.077    73.805    46.273     1.429     7.204    21.299     0.029     0.233     0.028     0.029     0.001     0.021    12.408     0.365     0.012 .00000E+00 0.000E+00 0.000E+00 0.000E+00 0.000E+00 0.000E+00
BIGSUB   9        0    1.39891E+03   150.200     0.000    91.606    82.413    86.397    23.692     1.527     1.590    17.524     0.016     0.138     0.018     0.052     0.003     0.012    14.278     0.566     0.001 .00000E+00 0.000E+00 0.000E+00 0.000E+00 0.000E+00 0.000E+00
BIGSUB  10        0    1.40511E+03   301.400     0.000   105.728    97.976    49.158   121.179    27.372    22.229    97.158    45.403    18.121     2.244     0.274     0.002     1.997    46.931     0.309     0.029 .00000E+00 0.000E+00 0.000E+00 0.000E+00 0.000E+00 0.000E+00
BIGSUB  11        0    1.21116E+03   110.800     0.000    99.557    88.037    48.004     2.796     0.116     0.000     2.621     0.006     0.007     0.001     0.001     0.000     0.002     2.390     0.055     0.000 .00000E+00 0.000E+00 0.000E+00 0.000E+00 0.000E+00 0.000E+00
BIGSUB   1        0    2.31032E+03   183.900     0.000    79.631    77.440    44.475    77.599     8.641    66.560   102.005    20.660     7.633     0.936     0.001     0.000     0.663    25.277     0.390     0.116 .00000E+00 0.000E+00 0.000E+00 0.000E+00 0.000E+00 0.000E+00
BIGSUB   2        0    2.24266E+03   133.700     0.000    75.891    74.351    52.021    41.306     1.763     2.141    13.949     1.791     4.516     0.526     0.008     0.001     0.353     9.872     0.649     0.004 .00000E+00 0.000E+00 0.000E+00 0.000E+00 0.000E+00 0.000E+00
BIGSUB   3        0    2.16038E+03    78.500     0.000    61.718    55.697    44.861    11.052     0.229     0.522     5.853     0.023     0.042     0.005     0.002     0.000     0.011     5.028     0.208     0.000 .00000E+00 0.000E+00 0.000E+00 0.000E+00 0.000E+00 0.000E+00
BIGSUB   4        0    2.74275E+03   208.800     0.000    72.870    71.413    49.665    83.815    15.751    26.842    81.786    10.330     7.605     0.960     0.011     0.005     1.103    38.518     0.791     0.054 .00000E+00 0.000E+00 0.000E+00 0.000E+00 0.000E+00 0.000E+00
BIGSUB   5        0    2.24150E+03   133.700     0.000    77.159    75.684    74.549    19.880     2.368     0.665    13.213     0.866     2.526     0.294     0.012     0.001     0.214    10.088     0.672     0.001 .00000E+00 0.000E+00 0.000E+00 0.000E+00 0.000E+00 0.000E+00
BIGSUB   6        0    2.36594E+03   208.800     0.000    72.593    71.340    48.756   116.329    13.916    40.534    72.702    13.808    12.673     1.572     0.005     0.002     1.135    17.284     0.227     0.086 .00000E+00 0.000E+00 0.000E+00 0.000E+00 0.000E+00 0.000E+00
BIGSUB   7        0    2.12040E+03   133.700     0.000    74.691    73.054    44.311    48.828     2.074     3.768    16.724     3.430     5.675     0.679     0.003     0.001     0.469    10.664     0.636     0.006 .00000E+00 0.000E+00 0.000E+00 0.000E+00 0.000E+00 0.000E+00
BIGSUB   8        0    2.40121E+03   181.800     0.000    63.991    63.425    74.045    86.782     9.436    29.500    61.374     0.311     2.263     0.278     0.061     0.009     0.203    21.755     0.815     0.060 .00000E+00 0.000E+00 0.000E+00 0.000E+00 0.000E+00 0.000E+00
BIGSUB   9        0    2.39891E+03   125.900     0.000    71.715    71.564    84.370    35.172     4.194    10.516    32.753     0.038     0.506     0.066     0.057     0.008     0.051    17.730     0.635     0.011 .00000E+00 0.000E+00 0.000E+00 0.000E+00 0.000E+00 0.000E+00
BIGSUB  10        0    2.40511E+03   183.900     0.000    79.620    77.254    47.228    67.215    13.381    56.777   101.594    14.722     5.801     0.718     0.001     0.001     0.634    30.108     0.689     0.324 .00000E+00 0.000E+00 0.000E+00 0.000E+00 0.000E+00 0.000E+00
BIGSUB  11        0    2.21116E+03   133.700     0.000    75.984    73.963    47.495    48.290     3.294     3.131    15.084     1.078     2.691     0.321     0.009     0.003     0.309     8.455     0.339     0.005 .00000E+00 0.000E+00 0.000E+00 0.000E+00 0.000E+00 0.000E+00
BIGSUB   1        0    3.31032E+03   184.800     0.000    95.075    84.701    39.427    65.481    20.540    82.345   125.166    73.048    13.013     1.594     0.187     0.000     1.138    19.866     0.176     0.135 .00000E+00 0.000E+00 0.000E+00 0.000E+00 0.000E+00 0.000E+00
BIGSUB   2        0    3.24266E+03   124.500     0.000    74.851    70.748    49.198    42.186     4.447    20.018    35.205     3.211     8.548     1.003     0.009     0.001     0.680    10.219     0.403     0.040 .00000E+00 0.000E+00 0.000E+00 0.000E+00 0.000E+00 0.000E+00
BIGSUB   3        0    3.16038E+03    50.700     0.000    89.041    57.792    29.884     4.714     0.823     2.074     5.557     0.102     0.161     0.017     0.019     0.001     0.040     2.508     0.103     0.002 .00000E+00 0.000E+00 0.000E+00 0.000E+00 0.000E+00 0.000E+00
BIGSUB   4        0    3.74275E+03   160.100     0.000    83.180    73.815    44.528    46.137    23.656    51.878    99.403    29.875    15.046     1.909     0.224     0.007     1.906    22.513     0.463     0.082 .00000E+00 0.000E+00 0.000E+00 0.000E+00 0.000E+00 0.000E+00
BIGSUB   5        0    3.24150E+03   124.500     0.000    75.856    72.615    72.878    34.072     6.504     9.307    29.296     1.482     5.093     0.597     0.015     0.003     0.447    13.188     0.571     0.016 .00000E+00 0.000E+00 0.000E+00 0.000E+00 0.000E+00 0.000E+00
BIGSUB   6        0    3.36594E+03   160.100     0.000    82.925    73.794    43.522    65.104    22.027    74.176   110.082    44.628    24.589     3.075     0.396     0.003     2.255    11.966     0.357     0.126 .00000E+00 0.000E+00 0.000E+00 0.000E+00 0.000E+00 0.000E+00
BIGSUB   7        0    3.12040E+03   124.500     0.000    73.898    70.469    40.771    43.553     4.154    25.114    40.073     4.413     8.475     1.014     0.004     0.001     0.699    10.183     0.310     0.037 .00000E+00 0.000E+00 0.000E+00 0.000E+00 0.000E+00 0.000E+00
BIGSUB   8        0    3.40121E+03    89.400     0.000    75.365    73.546    65.776    18.492     0.284    49.285    57.347     0.004     0.044     0.005     0.002     0.000     0.005     6.454     0.173     0.082 .00000E+00 0.000E+00 0.000E+00 0.000E+00 0.000E+00 0.000E+00
BIGSUB   9        0    3.39891E+03   126.900     0.000    69.177    68.722    80.351    37.842     6.103    24.639    49.733     0.092     0.815     0.106     0.039     0.008     0.084    18.327     0.485     0.019 .00000E+00 0.000E+00 0.000E+00 0.000E+00 0.000E+00 0.000E+00
BIGSUB  10        0    3.40511E+03   184.800     0.000    95.066    86.822    40.486    55.436    25.820    70.781   122.628    40.973     7.872     0.970     0.306     0.001     0.803    23.933     0.562     0.400 .00000E+00 0.000E+00 0.000E+00 0.000E+00 0.000E+00 0.000E+00
BIGSUB  11        0    3.21116E+03   124.500     0.000    74.925    71.517    43.616    43.350     5.674    23.840    38.144     1.677     4.657     0.557     0.006     0.004     0.476     8.031     0.193     0.035 .00000E+00 0.000E+00 0.000E+00 0.000E+00 0.000E+00 0.000E+00
BIGSUB   1        0    4.31032E+03     8.600     0.000    80.332    26.456    21.500     0.000     0.000    59.877    62.837     0.000     0.000     0.000     0.000     0.000     0.000     0.431     0.007     0.063 .00000E+00 0.000E+00 0.000E+00 0.000E+00 0.000E+00 0.000E+00
BIGSUB   2        0    4.24266E+03     9.800     0.000    65.289    30.308    28.637     0.000     0.000    23.627    24.683     0.000     0.000     0.000     0.000     0.000     0.000     0.305     0.009     0.028 .00000E+00 0.000E+00 0.000E+00 0.000E+00 0.000E+00 0.000E+00
BIGSUB   3        0    4.16038E+03     3.400     0.000   111.642    29.146     4.120     0.000     0.000     2.192     2.419     0.000     0.000     0.000     0.000     0.000     0.000     0.050     0.004     0.001 .00000E+00 0.000E+00 0.000E+00 0.000E+00 0.000E+00 0.000E+00
BIGSUB   4        0    4.74275E+03    17.000     0.000    83.188    41.085    19.880     0.000     0.014    42.681    45.068     0.010     0.001     0.000     0.000     0.000     0.000     0.804     0.040     0.052 .00000E+00 0.000E+00 0.000E+00 0.000E+00 0.000E+00 0.000E+00
BIGSUB   5        0    4.24150E+03     9.800     0.000    66.209    34.889    47.729     0.000     0.000    13.959    14.677     0.000     0.000     0.000     0.000     0.000     0.000     0.236     0.007     0.013 .00000E+00 0.000E+00 0.000E+00 0.000E+00 0.000E+00 0.000E+00
BIGSUB   6        0    4.36594E+03    17.000     0.000    82.966    39.833    18.774     0.000     0.102    60.192    63.160     0.092     0.006     0.001     0.000     0.000     0.001     0.658     0.018     0.081 .00000E+00 0.000E+00 0.000E+00 0.000E+00 0.000E+00 0.000E+00
BIGSUB   7        0    4.12040E+03     9.800     0.000    64.419    34.296    16.218     0.000     0.000    26.983    28.179     0.000     0.000     0.000     0.000     0.000     0.000     0.341     0.009     0.023 .00000E+00 0.000E+00 0.000E+00 0.000E+00 0.000E+00 0.000E+00
BIGSUB   8        0    4.40121E+03    17.600     0.000    65.354    49.307    33.922     0.000     0.000    33.185    34.853     0.000     0.000     0.000     0.000     0.000     0.000     0.290     0.022     0.031 .00000E+00 0.000E+00 0.000E+00 0.000E+00 0.000E+00 0.000E+00
BIGSUB   9        0    4.39891E+03     7.900     0.000    57.629    44.770    43.428     0.000     0.000    24.304    25.477     0.000     0.000     0.000     0.000     0.000     0.000     0.338     0.003     0.010 .00000E+00 0.000E+00 0.000E+00 0.000E+00 0.000E+00 0.000E+00
BIGSUB  10        0    4.40511E+03     8.600     0.000    80.324    30.640    18.314     0.000     0.000    51.292    53.873     0.000     0.000     0.000     0.000     0.000     0.000     0.398     0.022     0.195 .00000E+00 0.000E+00 0.000E+00 0.000E+00 0.000E+00 0.000E+00
BIGSUB  11        0    4.21116E+03     9.800     0.000    65.357    36.428    16.937     0.000     0.000    26.303    27.400     0.000     0.000     0.000     0.000     0.000     0.000     0.263     0.008     0.022 .00000E+00 0.000E+00 0.000E+00 0.000E+00 0.000E+00 0.000E+00
BIGSUB   1        0    5.31032E+03    12.200     0.000    99.838    18.666    14.898     0.000     0.000    30.875    33.247     0.000     0.000     0.000     0.000     0.000     0.000     0.120     0.001     0.013 .00000E+00 0.000E+00 0.000E+00 0.000E+00 0.000E+00 0.000E+00
BIGSUB   2        0    5.24266E+03     9.100     0.000    82.336    25.395    12.289     0.000     0.000    13.584    14.369     0.000     0.000     0.000     0.000     0.000     0.000     0.056     0.003     0.006 .00000E+00 0.000E+00 0.000E+00 0.000E+00 0.000E+00 0.000E+00
BIGSUB   3        0    5.16038E+03    10.100     0.000    75.582     9.811     4.250     0.000     0.000     0.214     0.533     0.000     0.000     0.000     0.000     0.000     0.000     0.157     0.002     0.000 .00000E+00 0.000E+00 0.000E+00 0.000E+00 0.000E+00 0.000E+00
BIGSUB   4        0    5.74275E+03    14.600     0.000    80.631    20.872    13.292     0.000     0.000    21.977    23.754     0.000     0.000     0.000     0.000     0.000     0.000     0.334     0.004     0.011 .00000E+00 0.000E+00 0.000E+00 0.000E+00 0.000E+00 0.000E+00
BIGSUB   5        0    5.24150E+03     9.100     0.000    82.978    29.455    27.312     0.000     0.000     8.273     8.817     0.000     0.000     0.000     0.000     0.000     0.000     0.064     0.001     0.003 .00000E+00 0.000E+00 0.000E+00 0.000E+00 0.000E+00 0.000E+00
BIGSUB   6        0    5.36594E+03    14.600     0.000    80.501    21.203    11.595     0.000     0.005    31.956    34.119     0.004     0.000     0.000     0.000     0.000     0.000     0.129     0.010     0.018 .00000E+00 0.000E+00 0.000E+00 0.000E+00 0.000E+00 0.000E+00
BIGSUB   7        0    5.12040E+03     9.100     0.000    81.728    19.779     5.484     0.000     0.000    15.079    15.956     0.000     0.000     0.000     0.000     0.000     0.000     0.056     0.000     0.005 .00000E+00 0.000E+00 0.000E+00 0.000E+00 0.000E+00 0.000E+00
BIGSUB   8        0    5.40121E+03     2.500     0.000    90.706    32.635     3.787     0.000     0.000    16.185    17.425     0.000     0.000     0.000     0.000     0.000     0.000     0.018     0.001     0.006 .00000E+00 0.000E+00 0.000E+00 0.000E+00 0.000E+00 0.000E+00
BIGSUB   9        0    5.39891E+03     8.300     0.000    66.890    41.311    10.363     0.000     0.000    13.204    14.053     0.000     0.000     0.000     0.000     0.000     0.000     0.060     0.000     0.002 .00000E+00 0.000E+00 0.000E+00 0.000E+00 0.000E+00 0.000E+00
BIGSUB  10        0    5.40511E+03    12.200     0.000    99.835    16.052    14.214     0.000     0.000    25.491    27.695     0.000     0.000     0.000     0.000     0.000     0.000     0.261     0.004     0.041 .00000E+00 0.000E+00 0.000E+00 0.000E+00 0.000E+00 0.000E+00
BIGSUB  11        0    5.21116E+03     9.100     0.000    82.383    19.839     6.147     0.000     0.000    14.749    15.612     0.000     0.000     0.000     0.000     0.000     0.000     0.059     0.000     0.005 .00000E+00 0.000E+00 0.000E+00 0.000E+00 0.000E+00 0.000E+00
BIGSUB   1        0    6.31032E+03     0.100     0.000   123.092     8.655     6.343     0.000     0.000     6.534     8.283     0.000     0.000     0.000     0.000     0.000     0.000     0.024     0.000     0.001 .00000E+00 0.000E+00 0.000E+00 0.000E+00 0.000E+00 0.000E+00
BIGSUB   2        0    6.24266E+03     0.100     0.000   105.565     7.791     4.599     0.000     0.000     1.678     2.268     0.000     0.000     0.000     0.000     0.000     0.000     0.012     0.001     0.000 .00000E+00 0.000E+00 0.000E+00 0.000E+00 0.000E+00 0.000E+00
BIGSUB   3        0    6.16038E+03     0.200     0.000   100.238     1.927     2.524     0.000     0.000     0.000     0.132     0.000     0.000     0.000     0.000     0.000     0.000     0.006     0.000     0.000 .00000E+00 0.000E+00 0.000E+00 0.000E+00 0.000E+00 0.000E+00
BIGSUB   4        0    6.74275E+03     0.300     0.000   109.790     7.947     5.645     0.000     0.000     5.216     6.345     0.000     0.000     0.000     0.000     0.000     0.000     0.010     0.001     0.001 .00000E+00 0.000E+00 0.000E+00 0.000E+00 0.000E+00 0.000E+00
BIGSUB   5        0    6.24150E+03     0.100     0.000   106.161    13.381    14.031     0.000     0.000     0.761     1.153     0.000     0.000     0.000     0.000     0.000     0.000     0.008     0.000     0.000 .00000E+00 0.000E+00 0.000E+00 0.000E+00 0.000E+00 0.000E+00
BIGSUB   6        0    6.36594E+03     0.300     0.000   109.695     8.922     2.357     0.000     0.000     8.437    10.028     0.000     0.000     0.000     0.000     0.000     0.000     0.017     0.002     0.002 .00000E+00 0.000E+00 0.000E+00 0.000E+00 0.000E+00 0.000E+00
BIGSUB   7        0    6.12040E+03     0.100     0.000   105.003     4.291     1.294     0.000     0.000     1.799     2.460     0.000     0.000     0.000     0.000     0.000     0.000     0.012     0.000     0.000 .00000E+00 0.000E+00 0.000E+00 0.000E+00 0.000E+00 0.000E+00
BIGSUB   8        0    6.40121E+03     0.000     0.000   100.897     2.239     1.548     0.000     0.000     1.629     2.567     0.000     0.000     0.000     0.000     0.000     0.000     0.004     0.000     0.000 .00000E+00 0.000E+00 0.000E+00 0.000E+00 0.000E+00 0.000E+00
BIGSUB   9        0    6.39891E+03     0.100     0.000    91.665     7.323     3.140     0.000     0.000     1.851     2.475     0.000     0.000     0.000     0.000     0.000     0.000     0.005     0.000     0.000 .00000E+00 0.000E+00 0.000E+00 0.000E+00 0.000E+00 0.000E+00
BIGSUB  10        0    6.40511E+03     0.100     0.000   123.090     6.176     8.138     0.000     0.000     5.642     7.148     0.000     0.000     0.000     0.000     0.000     0.000     0.020     0.001     0.005 .00000E+00 0.000E+00 0.000E+00 0.000E+00 0.000E+00 0.000E+00
BIGSUB  11        0    6.21116E+03     0.100     0.000   105.609     3.547     2.699     0.000     0.000     1.958     2.602     0.000     0.000     0.000     0.000     0.000     0.000     0.009     0.000     0.000 .00000E+00 0.000E+00 0.000E+00 0.000E+00 0.000E+00 0.000E+00
BIGSUB   1        0    7.31032E+03     1.300     0.000   126.066     3.854     3.789     0.000     0.000     0.093     1.453     0.000     0.000     0.000     0.000     0.000     0.000     0.000     0.000     0.000 .00000E+00 0.000E+00 0.000E+00 0.000E+00 0.000E+00 0.000E+00
BIGSUB   2        0    7.24266E+03     0.700     0.000   108.023     3.706     1.593     0.000     0.000     0.000     0.463     0.000     0.000     0.000     0.000     0.000     0.000     0.001     0.000     0.000 .00000E+00 0.000E+00 0.000E+00 0.000E+00 0.000E+00 0.000E+00
BIGSUB   3        0    7.16038E+03     0.000     0.000   117.576     0.001     2.523     0.000     0.000     0.000     0.100     0.000     0.000     0.000     0.000     0.000     0.000     0.000     0.000     0.000 .00000E+00 0.000E+00 0.000E+00 0.000E+00 0.000E+00 0.000E+00
BIGSUB   4        0    7.74275E+03     0.200     0.000   124.633     0.652     5.194     0.000     0.000     0.107     0.996     0.000     0.000     0.000     0.000     0.000     0.000     0.002     0.000     0.000 .00000E+00 0.000E+00 0.000E+00 0.000E+00 0.000E+00 0.000E+00
BIGSUB   5        0    7.24150E+03     0.700     0.000   108.574     9.645     5.086     0.000     0.000     0.000     0.309     0.000     0.000     0.000     0.000     0.000     0.000     0.000     0.000     0.000 .00000E+00 0.000E+00 0.000E+00 0.000E+00 0.000E+00 0.000E+00
BIGSUB   6        0    7.36594E+03     0.200     0.000   124.562     1.111     1.381     0.000     0.000     0.178     1.428     0.000     0.000     0.000     0.000     0.000     0.000     0.003     0.000     0.000 .00000E+00 0.000E+00 0.000E+00 0.000E+00 0.000E+00 0.000E+00
BIGSUB   7        0    7.12040E+03     0.700     0.000   107.502     1.264     0.730     0.000     0.000     0.000     0.519     0.000     0.000     0.000     0.000     0.000     0.000     0.001     0.000     0.000 .00000E+00 0.000E+00 0.000E+00 0.000E+00 0.000E+00 0.000E+00
BIGSUB   8        0    7.40121E+03     2.200     0.000    96.119     2.786     0.963     0.000     0.000     0.004     0.741     0.000     0.000     0.000     0.000     0.000     0.000     0.001     0.000     0.000 .00000E+00 0.000E+00 0.000E+00 0.000E+00 0.000E+00 0.000E+00
BIGSUB   9        0    7.39891E+03     1.600     0.000    93.865     2.415     2.325     0.000     0.000     0.008     0.501     0.000     0.000     0.000     0.000     0.000     0.000     0.000     0.000     0.000 .00000E+00 0.000E+00 0.000E+00 0.000E+00 0.000E+00 0.000E+00
BIGSUB  10        0    7.40511E+03     1.300     0.000   126.064     3.030     6.409     0.000     0.000     0.114     1.288     0.000     0.000     0.000     0.000     0.000     0.000     0.003     0.000     0.000 .00000E+00 0.000E+00 0.000E+00 0.000E+00 0.000E+00 0.000E+00
BIGSUB  11        0    7.21116E+03     0.700     0.000   108.064     1.028     2.372     0.000     0.000     0.000     0.508     0.000     0.000     0.000     0.000     0.000     0.000     0.001     0.000     0.000 .00000E+00 0.000E+00 0.000E+00 0.000E+00 0.000E+00 0.000E+00
BIGSUB   1        0    8.31032E+03     2.300     0.000   141.922     2.934     3.155     0.000     0.000     0.000     1.015     0.000     0.000     0.000     0.000     0.000     0.000     0.000     0.000     0.000 .00000E+00 0.000E+00 0.000E+00 0.000E+00 0.000E+00 0.000E+00
BIGSUB   2        0    8.24266E+03     1.900     0.000   124.959     2.055     1.439     0.000     0.000     0.000     0.348     0.000     0.000     0.000     0.000     0.000     0.000     0.000     0.000     0.000 .00000E+00 0.000E+00 0.000E+00 0.000E+00 0.000E+00 0.000E+00
BIGSUB   3        0    8.16038E+03     1.500     0.000   124.167     1.281     2.742     0.000     0.000     0.000     0.075     0.000     0.000     0.000     0.000     0.000     0.000     0.000     0.000     0.000 .00000E+00 0.000E+00 0.000E+00 0.000E+00 0.000E+00 0.000E+00
BIGSUB   4        0    8.74275E+03     2.300     0.000   130.912     2.066     5.428     0.000     0.000     0.000     0.665     0.000     0.000     0.000     0.000     0.000     0.000     0.001     0.000     0.000 .00000E+00 0.000E+00 0.000E+00 0.000E+00 0.000E+00 0.000E+00
BIGSUB   5        0    8.24150E+03     1.900     0.000   125.714     4.136     2.850     0.000     0.000     0.000     0.232     0.000     0.000     0.000     0.000     0.000     0.000     0.000     0.000     0.000 .00000E+00 0.000E+00 0.000E+00 0.000E+00 0.000E+00 0.000E+00
BIGSUB   6        0    8.36594E+03     2.300     0.000   130.778     2.286     1.396     0.000     0.000     0.000     0.934     0.000     0.000     0.000     0.000     0.000     0.000     0.001     0.000     0.000 .00000E+00 0.000E+00 0.000E+00 0.000E+00 0.000E+00 0.000E+00
BIGSUB   7        0    8.12040E+03     1.900     0.000   124.244     1.351     1.279     0.000     0.000     0.000     0.389     0.000     0.000     0.000     0.000     0.000     0.000     0.000     0.000     0.000 .00000E+00 0.000E+00 0.000E+00 0.000E+00 0.000E+00 0.000E+00
BIGSUB   8        0    8.40121E+03     2.300     0.000   119.841     1.643     1.612     0.000     0.000     0.000     0.551     0.000     0.000     0.000     0.000     0.000     0.000     0.003     0.000     0.000 .00000E+00 0.000E+00 0.000E+00 0.000E+00 0.000E+00 0.000E+00
BIGSUB   9        0    8.39891E+03     2.200     0.000   105.851     2.252     2.274     0.000     0.000     0.000     0.370     0.000     0.000     0.000     0.000     0.000     0.000     0.000     0.000     0.000 .00000E+00 0.000E+00 0.000E+00 0.000E+00 0.000E+00 0.000E+00
BIGSUB  10        0    8.40511E+03     2.300     0.000   141.918     2.451     6.249     0.000     0.000     0.000     0.880     0.000     0.000     0.000     0.000     0.000     0.000     0.006     0.000     0.000 .00000E+00 0.000E+00 0.000E+00 0.000E+00 0.000E+00 0.000E+00
BIGSUB  11        0    8.21116E+03     1.900     0.000   125.014     1.297     2.975     0.000     0.000     0.000     0.381     0.000     0.000     0.000     0.000     0.000     0.000     0.000     0.000     0.000 .00000E+00 0.000E+00 0.000E+00 0.000E+00 0.000E+00 0.000E+00
BIGSUB   1        0    9.31032E+03    38.900     0.000    75.200    27.969    13.371     0.000     0.000     0.000     1.438     0.000     0.000     0.000     0.000     0.000     0.000     0.708     0.005     0.000 .00000E+00 0.000E+00 0.000E+00 0.000E+00 0.000E+00 0.000E+00
BIGSUB   2        0    9.24266E+03    25.900     0.000    68.414    22.137     4.931     0.000     0.000     0.000     0.518     0.000     0.000     0.000     0.000     0.000     0.000     0.267     0.026     0.000 .00000E+00 0.000E+00 0.000E+00 0.000E+00 0.000E+00 0.000E+00
BIGSUB   3        0    9.16038E+03    63.100     0.000    55.183    35.620    28.317     0.000     0.000     0.000     1.781     0.000     0.000     0.000     0.000     0.000     0.000     1.727     0.019     0.000 .00000E+00 0.000E+00 0.000E+00 0.000E+00 0.000E+00 0.000E+00
BIGSUB   4        0    9.74275E+03   176.200     0.000    64.838    56.920    51.917    38.241    12.711     2.263    36.478     9.488     3.026     0.394     0.016     0.006     0.407    20.984     0.458     0.005 .00000E+00 0.000E+00 0.000E+00 0.000E+00 0.000E+00 0.000E+00
BIGSUB   5        0    9.24150E+03    25.900     0.000    69.485    23.085     5.360     0.000     0.000     0.000     0.471     0.000     0.000     0.000     0.000     0.000     0.000     0.303     0.033     0.000 .00000E+00 0.000E+00 0.000E+00 0.000E+00 0.000E+00 0.000E+00
BIGSUB   6        0    9.36594E+03   176.200     0.000    64.588    56.599    51.176    57.366    10.398     3.803    24.200    13.254     4.439     0.562     0.014     0.001     0.391     9.261     0.601     0.008 .00000E+00 0.000E+00 0.000E+00 0.000E+00 0.000E+00 0.000E+00
BIGSUB   7        0    9.12040E+03    25.900     0.000    67.404    22.117     4.774     0.000     0.000     0.000     0.565     0.000     0.000     0.000     0.000     0.000     0.000     0.284     0.029     0.000 .00000E+00 0.000E+00 0.000E+00 0.000E+00 0.000E+00 0.000E+00
BIGSUB   8        0    9.40121E+03    16.500     0.000    82.161    16.200     1.779     0.000     0.000     0.000     0.532     0.000     0.000     0.000     0.000     0.000     0.000     0.138     0.003     0.000 .00000E+00 0.000E+00 0.000E+00 0.000E+00 0.000E+00 0.000E+00
BIGSUB   9        0    9.39891E+03    21.400     0.000    55.127    18.182     5.246     0.000     0.000     0.000     0.511     0.000     0.000     0.000     0.000     0.000     0.000     0.244     0.004     0.000 .00000E+00 0.000E+00 0.000E+00 0.000E+00 0.000E+00 0.000E+00
BIGSUB  10        0    9.40511E+03    38.900     0.000    75.190    27.582    16.323     0.000     0.000     0.000     1.871     0.000     0.000     0.000     0.000     0.000     0.000     1.242     0.009     0.000 .00000E+00 0.000E+00 0.000E+00 0.000E+00 0.000E+00 0.000E+00
BIGSUB  11        0    9.21116E+03    25.900     0.000    68.493    22.492     6.139     0.000     0.000     0.000     0.516     0.000     0.000     0.000     0.000     0.000     0.000     0.241     0.025     0.000 .00000E+00 0.000E+00 0.000E+00 0.000E+00 0.000E+00 0.000E+00
BIGSUB   1        0   10.31032E+03    42.300     0.000    84.949    39.198    15.845     0.000     0.000     0.000     1.164     0.000     0.000     0.000     0.000     0.000     0.000     0.606     0.001     0.000 .00000E+00 0.000E+00 0.000E+00 0.000E+00 0.000E+00 0.000E+00
BIGSUB   2        0   10.24266E+03    40.700     0.000    68.435    36.760     8.444     0.000     0.000     0.000     0.601     0.000     0.000     0.000     0.000     0.000     0.000     0.408     0.002     0.000 .00000E+00 0.000E+00 0.000E+00 0.000E+00 0.000E+00 0.000E+00
BIGSUB   3        0   10.16038E+03    43.000     0.000    72.664    47.174    22.910     0.000     0.007     0.000     1.287     0.000     0.001     0.000     0.000     0.000     0.000     1.238     0.005     0.000 .00000E+00 0.000E+00 0.000E+00 0.000E+00 0.000E+00 0.000E+00
BIGSUB   4        0   10.74275E+03    97.800     0.000    78.087    59.067    49.887    24.319     4.102    17.620    35.059     2.662     0.591     0.080     0.034     0.002     0.095    12.620     0.201     0.035 .00000E+00 0.000E+00 0.000E+00 0.000E+00 0.000E+00 0.000E+00
BIGSUB   5        0   10.24150E+03    40.700     0.000    69.535    36.857     8.714     0.000     0.000     0.000     0.602     0.000     0.000     0.000     0.000     0.000     0.000     0.473     0.002     0.000 .00000E+00 0.000E+00 0.000E+00 0.000E+00 0.000E+00 0.000E+00
BIGSUB   6        0   10.36594E+03    97.800     0.000    77.830    59.048    49.176    34.160     3.495    27.657    38.547     3.759     0.805     0.102     0.007     0.000     0.072     6.359     0.241     0.057 .00000E+00 0.000E+00 0.000E+00 0.000E+00 0.000E+00 0.000E+00
BIGSUB   7        0   10.12040E+03    40.700     0.000    67.395    35.997     9.021     0.000     0.000     0.000     0.649     0.000     0.000     0.000     0.000     0.000     0.000     0.434     0.002     0.000 .00000E+00 0.000E+00 0.000E+00 0.000E+00 0.000E+00 0.000E+00
BIGSUB   8        0   10.40121E+03    31.600     0.000    72.520    28.352     4.739     0.000     0.000     0.000     0.576     0.000     0.000     0.000     0.000     0.000     0.000     0.274     0.001     0.000 .00000E+00 0.000E+00 0.000E+00 0.000E+00 0.000E+00 0.000E+00
BIGSUB   9        0   10.39891E+03    49.000     0.000    56.980    38.412    14.969     0.000     0.000     0.000     1.038     0.000     0.000     0.000     0.000     0.000     0.000     0.834     0.002     0.000 .00000E+00 0.000E+00 0.000E+00 0.000E+00 0.000E+00 0.000E+00
BIGSUB  10        0   10.40511E+03    42.300     0.000    84.939    38.671    18.805     0.000     0.000     0.000     1.613     0.000     0.000     0.000     0.000     0.000     0.000     1.132     0.002     0.000 .00000E+00 0.000E+00 0.000E+00 0.000E+00 0.000E+00 0.000E+00
BIGSUB  11        0   10.21116E+03    40.700     0.000    68.516    36.582     9.858     0.000     0.000     0.000     0.596     0.000     0.000     0.000     0.000     0.000     0.000     0.385     0.002     0.000 .00000E+00 0.000E+00 0.000E+00 0.000E+00 0.000E+00 0.000E+00
BIGSUB   1        0   11.31032E+03    49.100     0.000   100.300    43.606    20.506     0.000     0.000     0.000     1.132     0.000     0.000     0.000     0.000     0.000     0.000     0.733     0.001     0.000 .00000E+00 0.000E+00 0.000E+00 0.000E+00 0.000E+00 0.000E+00
BIGSUB   2        0   11.24266E+03    40.300     0.000    92.957    38.450     9.867     0.000     0.000     0.000     0.519     0.000     0.000     0.000     0.000     0.000     0.000     0.382     0.002     0.000 .00000E+00 0.000E+00 0.000E+00 0.000E+00 0.000E+00 0.000E+00
BIGSUB   3        0   11.16038E+03    63.200     0.000    69.544    55.152    28.600     0.000     0.223     0.000     2.487     0.019     0.027     0.003     0.000     0.000     0.006     2.235     0.003     0.000 .00000E+00 0.000E+00 0.000E+00 0.000E+00 0.000E+00 0.000E+00
BIGSUB   4        0   11.74275E+03    65.300     0.000    89.087    62.397    41.135     6.462     1.134    18.542    24.966     0.548     0.127     0.018     0.005     0.001     0.026     4.496     0.049     0.022 .00000E+00 0.000E+00 0.000E+00 0.000E+00 0.000E+00 0.000E+00
BIGSUB   5        0   11.24150E+03    40.300     0.000    94.256    37.847    10.687     0.000     0.000     0.000     0.536     0.000     0.000     0.000     0.000     0.000     0.000     0.444     0.003     0.000 .00000E+00 0.000E+00 0.000E+00 0.000E+00 0.000E+00 0.000E+00
BIGSUB   6        0   11.36594E+03    65.300     0.000    88.780    63.048    39.555     9.084     1.026    27.776    32.483     0.805     0.155     0.020     0.001     0.000     0.015     2.534     0.059     0.036 .00000E+00 0.000E+00 0.000E+00 0.000E+00 0.000E+00 0.000E+00
BIGSUB   7        0   11.12040E+03    40.300     0.000    91.726    36.241    12.626     0.000     0.000     0.000     0.558     0.000     0.000     0.000     0.000     0.000     0.000     0.404     0.003     0.000 .00000E+00 0.000E+00 0.000E+00 0.000E+00 0.000E+00 0.000E+00
BIGSUB   8        0   11.40121E+03    33.200     0.000   113.504    28.024     9.589     0.000     0.000     0.000     0.492     0.000     0.000     0.000     0.000     0.000     0.000     0.276     0.001     0.000 .00000E+00 0.000E+00 0.000E+00 0.000E+00 0.000E+00 0.000E+00
BIGSUB   9        0   11.39891E+03    70.600     0.000    75.803    55.835    28.145     0.000     0.000     0.000     1.623     0.000     0.000     0.000     0.000     0.000     0.000     1.477     0.001     0.000 .00000E+00 0.000E+00 0.000E+00 0.000E+00 0.000E+00 0.000E+00
BIGSUB  10        0   11.40511E+03    49.100     0.000   100.289    42.782    23.481     0.000     0.154     0.000     1.916     0.213     0.005     0.001     0.000     0.000     0.002     1.419     0.002     0.000 .00000E+00 0.000E+00 0.000E+00 0.000E+00 0.000E+00 0.000E+00
BIGSUB  11        0   11.21116E+03    40.300     0.000    93.053    36.053    13.710     0.000     0.000     0.000     0.515     0.000     0.000     0.000     0.000     0.000     0.000     0.365     0.003     0.000 .00000E+00 0.000E+00 0.000E+00 0.000E+00 0.000E+00 0.000E+00
BIGSUB   1        0   12.31032E+03   129.900     0.000    96.232    85.787    44.707    13.278     0.000     0.000     6.358     0.000     0.000     0.000     0.000     0.000     0.000     6.038     0.080     0.000 .00000E+00 0.000E+00 0.000E+00 0.000E+00 0.000E+00 0.000E+00
BIGSUB   2        0   12.24266E+03    76.400     0.000    75.752    59.862    25.298     0.000     0.000     0.000     1.175     0.000     0.000     0.000     0.000     0.000     0.000     1.070     0.003     0.000 .00000E+00 0.000E+00 0.000E+00 0.000E+00 0.000E+00 0.000E+00
BIGSUB   3        0   12.16038E+03   137.700     0.000    76.893    71.518    46.972    31.466     3.231     0.920    17.109     0.177     1.013     0.121     0.005     0.002     0.124    12.867     0.047     0.000 .00000E+00 0.000E+00 0.000E+00 0.000E+00 0.000E+00 0.000E+00
BIGSUB   4        0   12.74275E+03   114.100     0.000    83.946    75.568    48.722    18.977     0.902    15.164    27.598     0.430     0.044     0.007     0.003     0.000     0.016    10.724     0.108     0.011 .00000E+00 0.000E+00 0.000E+00 0.000E+00 0.000E+00 0.000E+00
BIGSUB   5        0   12.24150E+03    76.400     0.000    76.994    60.170    25.676     0.000     0.000     0.000     1.283     0.000     0.000     0.000     0.000     0.000     0.000     1.213     0.009     0.000 .00000E+00 0.000E+00 0.000E+00 0.000E+00 0.000E+00 0.000E+00
BIGSUB   6        0   12.36594E+03   114.100     0.000    83.619    76.234    47.778    26.033     1.426    22.343    29.373     1.181     0.041     0.005     0.001     0.000     0.004     4.443     0.087     0.019 .00000E+00 0.000E+00 0.000E+00 0.000E+00 0.000E+00 0.000E+00
BIGSUB   7        0   12.12040E+03    76.400     0.000    74.577    59.740    28.095     0.000     0.000     0.000     1.266     0.000     0.000     0.000     0.000     0.000     0.000     1.149     0.005     0.000 .00000E+00 0.000E+00 0.000E+00 0.000E+00 0.000E+00 0.000E+00
BIGSUB   8        0   12.40121E+03   109.400     0.000    78.340    67.742    47.130     1.996     0.000     0.000     2.051     0.000     0.000     0.000     0.000     0.000     0.000     1.886     0.007     0.000 .00000E+00 0.000E+00 0.000E+00 0.000E+00 0.000E+00 0.000E+00
BIGSUB   9        0   12.39891E+03   119.000     0.000    82.061    77.695    62.912     2.135     0.000     0.003     4.315     0.000     0.000     0.000     0.000     0.000     0.000     4.198     0.002     0.000 .00000E+00 0.000E+00 0.000E+00 0.000E+00 0.000E+00 0.000E+00
BIGSUB  10        0   12.40511E+03   129.900     0.000    96.219    84.863    46.943    11.471     0.662     0.000    10.008     0.508     0.018     0.002     0.000     0.000     0.007     9.070     0.084     0.000 .00000E+00 0.000E+00 0.000E+00 0.000E+00 0.000E+00 0.000E+00
BIGSUB  11        0   12.21116E+03    76.400     0.000    75.844    60.433    28.654     0.000     0.000     0.000     1.111     0.000     0.000     0.000     0.000     0.000     0.000     0.996     0.005     0.000 .00000E+00 0.000E+00 0.000E+00 0.000E+00 0.000E+00 0.000E+00
BIGSUB   1        0 2049.31032E+03   954.800     0.000  1208.377   517.726    44.707   296.708    46.471   272.153   424.431   158.268    45.590     5.591     0.257     0.002     3.959    90.264     0.889     0.346 .00000E+00 0.000E+00 0.000E+00 0.000E+00 0.000E+00 0.000E+00
BIGSUB   2        0 2049.24266E+03   573.900     0.000  1041.925   459.326    25.298    84.956     6.211    61.047    96.470     5.001    13.065     1.529     0.017     0.002     1.033    24.859     1.167     0.079 .00000E+00 0.000E+00 0.000E+00 0.000E+00 0.000E+00 0.000E+00
BIGSUB   3        0 2049.16038E+03   503.700     0.000  1038.421   421.184    46.972    47.233     4.518     6.047    38.909     0.321     1.244     0.145     0.027     0.003     0.181    27.194     0.418     0.003 .00000E+00 0.000E+00 0.000E+00 0.000E+00 0.000E+00 0.000E+00
BIGSUB   4        0 2049.74275E+03  1022.700     0.000  1095.736   559.833    48.722   262.460    62.791   210.235   417.179    56.044    27.924     3.551     0.305     0.022     3.796   133.258     2.799     0.291 .00000E+00 0.000E+00 0.000E+00 0.000E+00 0.000E+00 0.000E+00
BIGSUB   5        0 2049.24150E+03   573.900     0.000  1053.778   484.190    25.676    54.472     8.873    32.966    73.134     2.348     7.619     0.891     0.027     0.005     0.661    28.493     1.379     0.033 .00000E+00 0.000E+00 0.000E+00 0.000E+00 0.000E+00 0.000E+00
BIGSUB   6        0 2049.36594E+03  1022.700     0.000  1093.097   561.939    47.778   370.127    57.322   309.812   445.086    81.594    45.940     5.733     0.428     0.007     4.152    62.497     2.217     0.463 .00000E+00 0.000E+00 0.000E+00 0.000E+00 0.000E+00 0.000E+00
BIGSUB   7        0 2049.12040E+03   573.900     0.000  1030.712   446.277    28.095    97.126     6.370    72.742   110.250     7.988    14.295     1.711     0.007     0.002     1.181    26.178     1.084     0.072 .00000E+00 0.000E+00 0.000E+00 0.000E+00 0.000E+00 0.000E+00
BIGSUB   8        0 2049.40121E+03   637.500     0.000  1041.219   438.975    47.130   153.543    11.150   136.992   199.807     0.344     2.539     0.312     0.091     0.011     0.228    43.507     1.389     0.192 .00000E+00 0.000E+00 0.000E+00 0.000E+00 0.000E+00 0.000E+00
BIGSUB   9        0 2049.39891E+03   683.100     0.000   918.369   510.895    62.912    98.842    11.824    76.115   150.373     0.145     1.460     0.191     0.148     0.018     0.147    57.492     1.699     0.044 .00000E+00 0.000E+00 0.000E+00 0.000E+00 0.000E+00 0.000E+00
BIGSUB  10        0 2049.40511E+03   954.800     0.000  1208.283   514.299    46.943   255.301    67.390   232.324   427.673   101.819    31.817     3.935     0.582     0.003     3.443   114.523     1.685     0.994 .00000E+00 0.000E+00 0.000E+00 0.000E+00 0.000E+00 0.000E+00
BIGSUB  11        0 2049.21116E+03   573.900     0.000  1042.797   451.217    28.654    94.436     9.085    69.981   105.089     2.761     7.355     0.879     0.016     0.006     0.787    21.196     0.631     0.068 .00000E+00 0.000E+00 0.000E+00 0.000E+00 0.000E+00 0.000E+00
BIGSUB   1        0    1.31032E+03   279.200     0.000    98.459    93.656    46.231   129.838    17.639    16.422    66.801    65.967    28.371     3.479     0.001     0.001     2.455    32.174     0.215     0.011 .00000E+00 0.000E+00 0.000E+00 0.000E+00 0.000E+00 0.000E+00
[...]
BIGSUB   6        0    8.36594E+03     3.400     0.000   139.902     4.397     1.812     0.000     0.000     0.000     1.217     0.000     0.000     0.000     0.000     0.000     0.000     0.020     0.001     0.000 .00000E+00 0.000E+00 0.000E+00 0.000E+00 0.000E+00 0.000E+00
BIGSUB   7        0    8.12040E+03     3.200     0.000   131.826     4.140     1.589     0.000     0.000     0.000     0.700     0.000     0.000     0.000     0.000     0.000     0.000     0.025     0.001     0.000 .00000E+00 0.000E+00 0.000E+00 0.000E+00 0.000E+00 0.000E+00
BIGSUB   8        0    8.40121E+03     3.800     0.000   120.522     5.043     1.042     0.000     0.000     0.000     0.692     0.000     0.000     0.000     0.000     0.000     0.000     0.015     0.009     0.000 .00000E+00 0.000E+00 0.000E+00 0.000E+00 0.000E+00 0.000E+00
BIGSUB   9        0    8.39891E+03     3.400     0.000   111.776     4.933     0.439     0.000     0.000     0.000     0.629     0.000     0.000     0.000     0.000     0.000     0.000     0.037     0.029     0.000 .00000E+00 0.000E+00 0.000E+00 0.000E+00 0.000E+00 0.000E+00
BIGSUB  10        0    8.40511E+03     3.600     0.000   149.542     4.777     6.412     0.000     0.000     0.013     1.298     0.000     0.000     0.000     0.000     0.000     0.000     0.080     0.003     0.000 .00000E+00 0.000E+00 0.000E+00 0.000E+00 0.000E+00 0.000E+00
BIGSUB  11        0    8.21116E+03     3.200     0.000   132.484     4.088     3.545     0.000     0.000     0.000     0.691     0.000     0.000     0.000     0.000     0.000     0.000     0.024     0.001     0.000 .00000E+00 0.000E+00 0.000E+00 0.000E+00 0.000E+00 0.000E+00
BIGSUB   1        0    9.31032E+03    51.400     0.000    80.021    34.103    18.445     0.000     0.000     0.000     1.934     0.000     0.000     0.000     0.000     0.000     0.000     0.919     0.005     0.000 .00000E+00 0.000E+00 0.000E+00 0.000E+00 0.000E+00 0.000E+00
BIGSUB   2        0    9.24266E+03    33.700     0.000    73.534    25.401    15.208     0.000     0.000     0.000     0.801     0.000     0.000     0.000     0.000     0.000     0.000     0.332     0.003     0.000 .00000E+00 0.000E+00 0.000E+00 0.000E+00 0.000E+00 0.000E+00
BIGSUB   3        0    9.16038E+03    23.900     0.000    68.665    17.562     8.459     0.000     0.000     0.000     0.644     0.000     0.000     0.000     0.000     0.000     0.000     0.433     0.014     0.000 .00000E+00 0.000E+00 0.000E+00 0.000E+00 0.000E+00 0.000E+00
BIGSUB   4        0    9.74275E+03   104.000     0.000    77.329    49.622    43.540     5.748     4.081     0.001    11.847     5.810     0.952     0.147     0.001     0.000     0.151     7.150     0.028     0.000 .00000E+00 0.000E+00 0.000E+00 0.000E+00 0.000E+00 0.000E+00
BIGSUB   5        0    9.24150E+03    33.700     0.000    74.593    25.994    27.457     0.000     0.000     0.000     0.741     0.000     0.000     0.000     0.000     0.000     0.000     0.367     0.003     0.000 .00000E+00 0.000E+00 0.000E+00 0.000E+00 0.000E+00 0.000E+00
BIGSUB   6        0    9.36594E+03   104.000     0.000    77.085    49.419    43.954     9.536     3.681     0.001     7.306     7.461     1.313     0.187     0.002     0.000     0.136     2.755     0.026     0.000 .00000E+00 0.000E+00 0.000E+00 0.000E+00 0.000E+00 0.000E+00
BIGSUB   7        0    9.12040E+03    33.700     0.000    72.531    24.746    10.181     0.000     0.000     0.000     0.840     0.000     0.000     0.000     0.000     0.000     0.000     0.352     0.004     0.000 .00000E+00 0.000E+00 0.000E+00 0.000E+00 0.000E+00 0.000E+00
BIGSUB   8        0    9.40121E+03    27.600     0.000    70.316    22.420     6.022     0.000     0.000     0.000     0.683     0.000     0.000     0.000     0.000     0.000     0.000     0.197     0.031     0.000 .00000E+00 0.000E+00 0.000E+00 0.000E+00 0.000E+00 0.000E+00
BIGSUB   9        0    9.39891E+03    26.900     0.000    61.770    21.493     5.529     0.000     0.000     0.000     0.740     0.000     0.000     0.000     0.000     0.000     0.000     0.314     0.033     0.000 .00000E+00 0.000E+00 0.000E+00 0.000E+00 0.000E+00 0.000E+00
BIGSUB  10        0    9.40511E+03    51.400     0.000    80.011    34.077    22.095     0.000     0.000     0.000     2.492     0.000     0.000     0.000     0.000     0.000     0.000     1.624     0.009     0.000 .00000E+00 0.000E+00 0.000E+00 0.000E+00 0.000E+00 0.000E+00
BIGSUB  11        0    9.21116E+03    33.700     0.000    73.612    24.867    12.071     0.000     0.000     0.000     0.782     0.000     0.000     0.000     0.000     0.000     0.000     0.301     0.003     0.000 .00000E+00 0.000E+00 0.000E+00 0.000E+00 0.000E+00 0.000E+00
BIGSUB   1        0   10.31032E+03    73.700     0.000    95.563    51.418    33.246     2.948     1.694     0.000     5.223     3.092     0.024     0.003     0.000     0.000     0.002     2.748     0.020     0.000 .00000E+00 0.000E+00 0.000E+00 0.000E+00 0.000E+00 0.000E+00
BIGSUB   2        0   10.24266E+03    59.000     0.000    85.877    44.278    28.614     0.000     0.342     0.000     1.643     0.019     0.173     0.021     0.000     0.000     0.017     0.943     0.002     0.000 .00000E+00 0.000E+00 0.000E+00 0.000E+00 0.000E+00 0.000E+00
BIGSUB   3        0   10.16038E+03   152.300     0.000    77.992    49.764    48.803    37.269     9.056     0.346    23.906     3.682     7.403     0.863     0.006     0.006     0.587    14.318     0.136     0.000 .00000E+00 0.000E+00 0.000E+00 0.000E+00 0.000E+00 0.000E+00
BIGSUB   4        0   10.74275E+03   147.900     0.000    85.461    65.105    49.798    24.572    40.055     3.006    54.927    70.062    16.012     2.458     0.005     0.005     2.239    11.328     0.050     0.001 .00000E+00 0.000E+00 0.000E+00 0.000E+00 0.000E+00 0.000E+00
BIGSUB   5        0   10.24150E+03    59.000     0.000    87.053    44.602    39.870     0.000     0.950     0.000     2.253     0.094     0.626     0.075     0.000     0.000     0.061     1.017     0.002     0.000 .00000E+00 0.000E+00 0.000E+00 0.000E+00 0.000E+00 0.000E+00
BIGSUB   6        0   10.36594E+03   147.900     0.000    85.179    65.711    48.988    37.553    38.795     5.205    50.886   109.143    23.541     3.433     0.003     0.003     2.498     6.113     0.064     0.002 .00000E+00 0.000E+00 0.000E+00 0.000E+00 0.000E+00 0.000E+00
BIGSUB   7        0   10.12040E+03    59.000     0.000    84.763    43.706    24.249     0.000     0.186     0.000     1.562     0.437     0.034     0.004     0.000     0.000     0.003     1.002     0.003     0.000 .00000E+00 0.000E+00 0.000E+00 0.000E+00 0.000E+00 0.000E+00
BIGSUB   8        0   10.40121E+03    40.800     0.000    98.626    38.669     7.735     0.000     0.000     0.000     0.787     0.000     0.000     0.000     0.000     0.000     0.000     0.414     0.003     0.000 .00000E+00 0.000E+00 0.000E+00 0.000E+00 0.000E+00 0.000E+00
BIGSUB   9        0   10.39891E+03    68.100     0.000    71.712    52.992    19.098     0.000     0.017     0.000     1.820     0.000     0.001     0.000     0.000     0.000     0.000     1.477     0.005     0.000 .00000E+00 0.000E+00 0.000E+00 0.000E+00 0.000E+00 0.000E+00
BIGSUB  10        0   10.40511E+03    73.700     0.000    95.553    50.498    34.441     2.608     4.700     0.000     8.852     3.580     0.101     0.014     0.001     0.000     0.010     3.485     0.026     0.000 .00000E+00 0.000E+00 0.000E+00 0.000E+00 0.000E+00 0.000E+00
BIGSUB  11        0   10.21116E+03    59.000     0.000    85.964    44.032    25.401     0.000     0.774     0.000     1.979     0.257     0.095     0.015     0.000     0.000     0.030     0.836     0.003     0.000 .00000E+00 0.000E+00 0.000E+00 0.000E+00 0.000E+00 0.000E+00
BIGSUB   1        0   11.31032E+03    17.700     0.000   110.932    33.328    17.577     0.000     0.000     0.000     0.731     0.000     0.000     0.000     0.000     0.000     0.000     0.153     0.001     0.000 .00000E+00 0.000E+00 0.000E+00 0.000E+00 0.000E+00 0.000E+00
BIGSUB   2        0   11.24266E+03    16.400     0.000   102.742    29.918    15.080     0.000     0.000     0.000     0.312     0.000     0.000     0.000     0.000     0.000     0.000     0.055     0.000     0.000 .00000E+00 0.000E+00 0.000E+00 0.000E+00 0.000E+00 0.000E+00
BIGSUB   3        0   11.16038E+03    91.900     0.000    71.784    61.941    49.797    19.002     2.290    12.246    22.921     1.601     2.456     0.290     0.002     0.002     0.198     7.997     0.057     0.005 .00000E+00 0.000E+00 0.000E+00 0.000E+00 0.000E+00 0.000E+00
BIGSUB   4        0   11.74275E+03    20.900     0.000   112.700    42.036    27.626     0.526     0.005     9.936    11.764     0.000     0.000     0.000     0.000     0.000     0.000     1.256     0.005     0.003 .00000E+00 0.000E+00 0.000E+00 0.000E+00 0.000E+00 0.000E+00
BIGSUB   5        0   11.24150E+03    16.400     0.000   103.848    30.050    26.201     0.000     0.000     0.000     0.246     0.000     0.000     0.000     0.000     0.000     0.000     0.042     0.000     0.000 .00000E+00 0.000E+00 0.000E+00 0.000E+00 0.000E+00 0.000E+00
BIGSUB   6        0   11.36594E+03    20.900     0.000   112.438    42.856    24.466     0.755     0.042    16.583    18.551     0.000     0.000     0.000     0.000     0.000     0.000     1.093     0.008     0.005 .00000E+00 0.000E+00 0.000E+00 0.000E+00 0.000E+00 0.000E+00
BIGSUB   7        0   11.12040E+03    16.400     0.000   101.692    29.606    11.026     0.000     0.000     0.000     0.330     0.000     0.000     0.000     0.000     0.000     0.000     0.062     0.000     0.000 .00000E+00 0.000E+00 0.000E+00 0.000E+00 0.000E+00 0.000E+00
BIGSUB   8        0   11.40121E+03    11.600     0.000   147.114    16.835     2.422     0.000     0.000     0.000     0.343     0.000     0.000     0.000     0.000     0.000     0.000     0.077     0.009     0.000 .00000E+00 0.000E+00 0.000E+00 0.000E+00 0.000E+00 0.000E+00
BIGSUB   9        0   11.39891E+03    29.900     0.000    82.986    39.123     9.449     0.000     0.000     0.000     0.643     0.000     0.000     0.000     0.000     0.000     0.000     0.410     0.002     0.000 .00000E+00 0.000E+00 0.000E+00 0.000E+00 0.000E+00 0.000E+00
BIGSUB  10        0   11.40511E+03    17.700     0.000   110.923    32.284    19.745     0.000     0.000     0.000     0.677     0.000     0.000     0.000     0.000     0.000     0.000     0.182     0.003     0.000 .00000E+00 0.000E+00 0.000E+00 0.000E+00 0.000E+00 0.000E+00
BIGSUB  11        0   11.21116E+03    16.400     0.000   102.824    29.563    12.218     0.000     0.000     0.000     0.316     0.000     0.000     0.000     0.000     0.000     0.000     0.053     0.000     0.000 .00000E+00 0.000E+00 0.000E+00 0.000E+00 0.000E+00 0.000E+00
BIGSUB   1        0   12.31032E+03   145.200     0.000   109.503    91.339    44.241    19.001     0.105     0.466     8.660     0.283     0.004     0.001     0.000     0.000     0.000     7.598     0.083     0.000 .00000E+00 0.000E+00 0.000E+00 0.000E+00 0.000E+00 0.000E+00
BIGSUB   2        0   12.24266E+03    83.500     0.000    86.021    64.113    33.224     0.000     0.000     0.000     1.351     0.000     0.000     0.000     0.000     0.000     0.000     1.155     0.001     0.000 .00000E+00 0.000E+00 0.000E+00 0.000E+00 0.000E+00 0.000E+00
BIGSUB   3        0   12.16038E+03   125.800     0.000    91.067    70.930    39.756    38.935    11.981    25.714    53.492     8.158    15.319     1.838     0.005     0.007     1.217    15.083     0.105     0.010 .00000E+00 0.000E+00 0.000E+00 0.000E+00 0.000E+00 0.000E+00
BIGSUB   4        0   12.74275E+03   130.600     0.000    94.723    81.405    48.055    15.453     2.640    10.047    23.785     2.065     0.275     0.051     0.001     0.000     0.069    10.521     0.028     0.002 .00000E+00 0.000E+00 0.000E+00 0.000E+00 0.000E+00 0.000E+00
BIGSUB   5        0   12.24150E+03    83.500     0.000    87.170    64.638    43.697     0.000     0.000     0.000     1.459     0.000     0.000     0.000     0.000     0.000     0.000     1.302     0.001     0.000 .00000E+00 0.000E+00 0.000E+00 0.000E+00 0.000E+00 0.000E+00
BIGSUB   6        0   12.36594E+03   130.600     0.000    94.423    81.816    47.419    21.845     2.641    16.008    24.076     2.639     0.245     0.037     0.001     0.000     0.027     4.578     0.028     0.003 .00000E+00 0.000E+00 0.000E+00 0.000E+00 0.000E+00 0.000E+00
BIGSUB   7        0   12.12040E+03    83.500     0.000    84.931    63.764    29.444     0.000     0.000     0.000     1.422     0.000     0.000     0.000     0.000     0.000     0.000     1.218     0.002     0.000 .00000E+00 0.000E+00 0.000E+00 0.000E+00 0.000E+00 0.000E+00
BIGSUB   8        0   12.40121E+03   140.100     0.000    88.970    73.175    57.653     8.035     0.000     0.000     3.262     0.000     0.000     0.000     0.000     0.000     0.000     3.055     0.145     0.000 .00000E+00 0.000E+00 0.000E+00 0.000E+00 0.000E+00 0.000E+00
BIGSUB   9        0   12.39891E+03   130.700     0.000    93.056    85.198    50.727     0.165     0.000     0.000     4.103     0.000     0.000     0.000     0.000     0.000     0.000     3.925     0.015     0.000 .00000E+00 0.000E+00 0.000E+00 0.000E+00 0.000E+00 0.000E+00
BIGSUB  10        0   12.40511E+03   145.200     0.000   109.492    90.373    46.639    16.190     1.253     0.786    12.632     1.064     0.025     0.004     0.001     0.000     0.004    10.174     0.085     0.001 .00000E+00 0.000E+00 0.000E+00 0.000E+00 0.000E+00 0.000E+00
BIGSUB  11        0   12.21116E+03    83.500     0.000    86.106    64.389    30.181     0.000     0.000     0.000     1.288     0.000     0.000     0.000     0.000     0.000     0.000     1.086     0.001     0.000 .00000E+00 0.000E+00 0.000E+00 0.000E+00 0.000E+00 0.000E+00
BIGSUB   1        0 2070.31032E+03  1196.000     0.000  1321.650   533.313    44.241   375.408   177.424   370.245   683.137   554.324    46.069     5.624     0.642     0.003     3.823   114.608     0.863     0.432 .00000E+00 0.000E+00 0.000E+00 0.000E+00 0.000E+00 0.000E+00
BIGSUB   2        0 2070.24266E+03   672.500     0.000  1160.118   457.782    33.224   156.371    38.042   132.725   219.152    49.307    75.388     9.252     0.001     0.009     6.148    40.259     0.402     0.060 .00000E+00 0.000E+00 0.000E+00 0.000E+00 0.000E+00 0.000E+00
BIGSUB   3        0 2070.16038E+03   639.700     0.000  1108.437   422.784    39.756   141.109    25.284   104.986   193.845    13.869    25.683     3.061     0.017     0.016     2.125    57.787     0.714     0.065 .00000E+00 0.000E+00 0.000E+00 0.000E+00 0.000E+00 0.000E+00
BIGSUB   4        0 2070.74275E+03  1012.800     0.000  1209.863   532.693    48.055   241.922   118.615   230.808   485.447   151.892    45.623     6.639     0.032     0.024     6.486   122.893     0.580     0.209 .00000E+00 0.000E+00 0.000E+00 0.000E+00 0.000E+00 0.000E+00
BIGSUB   5        0 2070.24150E+03   672.500     0.000  1171.457   475.942    43.697   123.726    48.158    95.223   199.942    22.340    51.422     6.266     0.002     0.023     4.588    50.311     0.502     0.052 .00000E+00 0.000E+00 0.000E+00 0.000E+00 0.000E+00 0.000E+00
BIGSUB   6        0 2070.36594E+03  1012.800     0.000  1207.384   536.209    47.419   343.666   110.392   337.588   526.374   227.815    70.986     9.772     0.015     0.010     7.206    59.782     0.700     0.334 .00000E+00 0.000E+00 0.000E+00 0.000E+00 0.000E+00 0.000E+00
BIGSUB   7        0 2070.12040E+03   672.500     0.000  1149.369   451.037    29.444   162.469    36.569   140.962   226.574    60.082    78.240    10.063     0.001     0.003     5.915    40.494     0.769     0.202 .00000E+00 0.000E+00 0.000E+00 0.000E+00 0.000E+00 0.000E+00
BIGSUB   8        0 2070.40121E+03   668.200     0.000  1157.863   448.052    57.653   171.421    18.184   181.274   259.231     2.896    14.673     1.706     0.083     0.010     0.822    49.131     1.231     0.197 .00000E+00 0.000E+00 0.000E+00 0.000E+00 0.000E+00 0.000E+00
BIGSUB   9        0 2070.39891E+03   745.500     0.000  1022.565   509.894    50.727   149.652    42.655   139.059   270.127     0.590    13.722     1.639     1.251     0.308     1.319    80.108    13.475     0.708 .00000E+00 0.000E+00 0.000E+00 0.000E+00 0.000E+00 0.000E+00
BIGSUB  10        0 2070.40511E+03  1196.000     0.000  1321.564   527.580    46.639   320.840   213.484   313.345   683.267   315.792    39.324     4.863     2.516     0.003     3.027   138.587     1.962     1.277 .00000E+00 0.000E+00 0.000E+00 0.000E+00 0.000E+00 0.000E+00
BIGSUB  11        0 2070.21116E+03   672.500     0.000  1160.953   454.418    30.181   161.278    44.808   138.062   223.268    26.292    51.451     6.666     0.024     0.009     4.787    31.984     0.362     0.123 .00000E+00 0.000E+00 0.000E+00 0.000E+00 0.000E+00 0.000E+00
BIGSUB   1        0 23.0.31032E+03   991.378     0.000  1227.595   530.118    44.241   305.959    62.198   265.236   435.205   221.033    44.179     5.405     0.157     0.002     3.813    92.526     0.924     0.311 .00000E+00 0.000E+00 0.000E+00 0.000E+00 0.000E+00 0.000E+00
BIGSUB   2        0 23.0.24266E+03   597.278     0.000  1076.606   462.939    33.224    97.282     8.514    70.901   111.884    10.182    19.441     2.343     0.016     0.003     1.568    27.612     0.874     0.064 .00000E+00 0.000E+00 0.000E+00 0.000E+00 0.000E+00 0.000E+00
BIGSUB   3        0 23.0.16038E+03   482.157     0.000  1062.124   397.609    39.756    49.586     7.961    27.395    65.263     2.992     6.703     0.799     0.016     0.005     0.657    27.543     0.473     0.017 .00000E+00 0.000E+00 0.000E+00 0.000E+00 0.000E+00 0.000E+00
BIGSUB   4        0 23.0.74275E+03   916.100     0.000  1131.009   531.409    48.055   213.586    59.487   179.690   361.307    64.901    23.588     3.186     0.196     0.019     3.413   111.508     0.994     0.162 .00000E+00 0.000E+00 0.000E+00 0.000E+00 0.000E+00 0.000E+00
BIGSUB   5        0 23.0.24150E+03   597.278     0.000  1088.523   485.681    43.697    65.794    11.932    41.117    88.857     4.794    13.130     1.577     0.013     0.007     1.161    32.525     0.988     0.030 .00000E+00 0.000E+00 0.000E+00 0.000E+00 0.000E+00 0.000E+00
BIGSUB   6        0 23.0.36594E+03   916.100     0.000  1128.381   535.061    47.419   302.076    53.923   262.009   383.117    92.790    38.589     4.988     0.154     0.006     3.649    52.164     0.802     0.249 .00000E+00 0.000E+00 0.000E+00 0.000E+00 0.000E+00 0.000E+00
BIGSUB   7        0 23.0.12040E+03   597.278     0.000  1065.323   452.352    29.444   107.160     8.554    80.515   123.045    14.049    19.858     2.465     0.047     0.001     1.610    28.624     0.960     0.087 .00000E+00 0.000E+00 0.000E+00 0.000E+00 0.000E+00 0.000E+00
BIGSUB   8        0 23.0.40121E+03   642.035     0.000  1070.152   450.507    57.653   140.919     9.184   112.243   168.680     0.726     4.733     0.556     0.054     0.007     0.315    40.226     1.176     0.116 .00000E+00 0.000E+00 0.000E+00 0.000E+00 0.000E+00 0.000E+00
BIGSUB   9        0 23.0.39891E+03   689.887     0.000   947.738   516.341    50.727    99.851    14.307    75.921   154.006     0.181     3.167     0.410     0.556     0.087     0.350    58.791     5.559     0.205 .00000E+00 0.000E+00 0.000E+00 0.000E+00 0.000E+00 0.000E+00
BIGSUB  10        0 23.0.40511E+03   991.378     0.000  1227.501   525.922    46.639   262.715    85.602   224.310   439.628   136.772    31.071     3.843     0.729     0.003     3.020   116.626     1.702     0.894 .00000E+00 0.000E+00 0.000E+00 0.000E+00 0.000E+00 0.000E+00
BIGSUB  11        0 23.0.21116E+03   597.278     0.000  1077.483   456.838    30.181   105.001    11.620    78.221   118.320     5.550    11.330     1.422     0.062     0.007     1.163    23.235     0.544     0.068 .00000E+00 0.000E+00 0.000E+00 0.000E+00 0.000E+00 0.000E+00
