1
    SWAT Dec 23 2016    VER 2016/Rev 664                                                                 0/ 0/   0      0: 0: 0

    General Input/Output section (file.cio):                                        
    12/3/2021 12:00:00 AM ARCGIS-SWAT interface AV                                  
                                                                                    


       SUB      GIS  MON   AREAkm2  PRECIPmm SNOMELTmm     PETmm      ETmm      SWmm    PERCmm    SURQmm    GW_Qmm    WYLDmm  SYLDt/ha ORGNkg/ha ORGPkg/haNSURQkg/ha SOLPkg/ha SEDPkg/ha LAT Q(mm)LATNO3kg/hGWNO3kg/haCHOLAmic/LCBODU mg/L DOXQ mg/L TNO3kg/ha   QTILEmm TVAPkg/ha
BIGSUB   1        0    1.31032E+03   239.700     0.000    90.592    78.164    47.452    76.517    33.929     3.294    57.494    86.334    34.984     4.270     0.005     0.002     3.005    19.887     0.178     0.002 .00000E+00 0.000E+00 0.000E+00 0.000E+00 0.000E+00 0.000E+00
BIGSUB   2        0    1.24266E+03    94.400     0.000    85.265    57.137    42.929     0.043     0.000     0.000     1.774     0.000     0.000     0.000     0.000     0.000     0.000     1.708     0.063     0.000 .00000E+00 0.000E+00 0.000E+00 0.000E+00 0.000E+00 0.000E+00
BIGSUB   3        0    1.16038E+03    39.500     0.000    81.520    30.758    17.798     0.000     0.000     0.000     0.945     0.000     0.000     0.000     0.000     0.000     0.000     0.938     0.034     0.000 .00000E+00 0.000E+00 0.000E+00 0.000E+00 0.000E+00 0.000E+00
BIGSUB   4        0    1.74275E+03   126.700     0.000    81.019    63.983    50.513    13.989     6.691     0.005    17.064     1.096     3.769     0.422     0.034     0.004     0.430    10.262     0.237     0.000 .00000E+00 0.000E+00 0.000E+00 0.000E+00 0.000E+00 0.000E+00
BIGSUB   5        0    1.24150E+03    94.400     0.000    86.775    58.053    43.458     0.021     0.000     0.000     1.960     0.000     0.000     0.000     0.000     0.000     0.000     1.921     0.073     0.000 .00000E+00 0.000E+00 0.000E+00 0.000E+00 0.000E+00 0.000E+00
BIGSUB   6        0    1.36594E+03   126.700     0.000    80.686    64.601    50.484    22.918     6.088     0.007    10.867     2.904     6.885     0.818     0.016     0.002     0.541     4.617     0.202     0.000 .00000E+00 0.000E+00 0.000E+00 0.000E+00 0.000E+00 0.000E+00
BIGSUB   7        0    1.12040E+03    94.400     0.000    83.838    58.366    44.510     0.446     0.246     0.000     2.161     0.293     0.483     0.059     0.000     0.000     0.042     1.836     0.074     0.000 .00000E+00 0.000E+00 0.000E+00 0.000E+00 0.000E+00 0.000E+00
BIGSUB   8        0    1.40121E+03   110.800     0.000    68.525    52.718    60.931    10.215     0.296     0.001     3.418     0.030     0.170     0.022     0.002     0.000     0.014     3.042     0.147     0.000 .00000E+00 0.000E+00 0.000E+00 0.000E+00 0.000E+00 0.000E+00
BIGSUB   9        0    1.39891E+03   116.800     0.000    78.423    63.472    67.027     2.840     0.173     0.000     4.368     0.004     0.028     0.004     0.002     0.000     0.002     4.136     0.159     0.000 .00000E+00 0.000E+00 0.000E+00 0.000E+00 0.000E+00 0.000E+00
BIGSUB  10        0    1.40511E+03   239.700     0.000    90.579    77.702    50.265    64.182    42.492     2.898    70.757    54.195    23.944     2.956     0.017     0.003     2.548    25.042     0.270     0.004 .00000E+00 0.000E+00 0.000E+00 0.000E+00 0.000E+00 0.000E+00
BIGSUB  11        0    1.21116E+03    94.400     0.000    85.376    58.908    45.177     0.175     0.572     0.000     2.310     0.010     0.039     0.005     0.006     0.001     0.010     1.663     0.063     0.000 .00000E+00 0.000E+00 0.000E+00 0.000E+00 0.000E+00 0.000E+00
BIGSUB   1        0    2.31032E+03    99.100     0.000    80.017    67.082    40.339    27.779     2.765    29.076    44.643     3.553     0.597     0.073     0.001     0.000     0.052    12.024     0.089     0.015 .00000E+00 0.000E+00 0.000E+00 0.000E+00 0.000E+00 0.000E+00
BIGSUB   2        0    2.24266E+03    64.200     0.000    76.026    62.784    40.379     2.528     0.000     0.000     1.636     0.000     0.000     0.000     0.000     0.000     0.000     1.585     0.102     0.000 .00000E+00 0.000E+00 0.000E+00 0.000E+00 0.000E+00 0.000E+00
BIGSUB   3        0    2.16038E+03    45.500     0.000    61.448    39.013    22.978     0.000     0.003     0.000     1.299     0.000     0.000     0.000     0.000     0.000     0.000     1.292     0.048     0.000 .00000E+00 0.000E+00 0.000E+00 0.000E+00 0.000E+00 0.000E+00
BIGSUB   4        0    2.74275E+03    98.500     0.000    73.393    65.656    44.931    23.133     3.578     4.431    20.033     0.852     1.797     0.202     0.031     0.002     0.240    11.823     0.335     0.006 .00000E+00 0.000E+00 0.000E+00 0.000E+00 0.000E+00 0.000E+00
BIGSUB   5        0    2.24150E+03    64.200     0.000    77.318    62.731    42.904     0.639     0.000     0.000     1.552     0.000     0.000     0.000     0.000     0.000     0.000     1.524     0.083     0.000 .00000E+00 0.000E+00 0.000E+00 0.000E+00 0.000E+00 0.000E+00
BIGSUB   6        0    2.36594E+03    98.500     0.000    73.110    65.328    43.894    33.138     3.372     7.733    17.136     2.138     3.075     0.366     0.012     0.001     0.246     5.723     0.314     0.010 .00000E+00 0.000E+00 0.000E+00 0.000E+00 0.000E+00 0.000E+00
BIGSUB   7        0    2.12040E+03    64.200     0.000    74.802    62.334    39.653     4.773     0.167     0.000     2.182     0.307     0.311     0.038     0.000     0.000     0.027     1.947     0.146     0.000 .00000E+00 0.000E+00 0.000E+00 0.000E+00 0.000E+00 0.000E+00
BIGSUB   8        0    2.40121E+03    94.500     0.000    67.307    63.352    69.933    14.307     3.058     3.199    11.449     0.122     0.718     0.092     0.063     0.003     0.065     5.050     0.315     0.004 .00000E+00 0.000E+00 0.000E+00 0.000E+00 0.000E+00 0.000E+00
BIGSUB   9        0    2.39891E+03    53.200     0.000    71.588    61.891    57.424     0.000     0.000     0.237     1.632     0.000     0.000     0.000     0.000     0.000     0.000     1.338     0.068     0.000 .00000E+00 0.000E+00 0.000E+00 0.000E+00 0.000E+00 0.000E+00
BIGSUB  10        0    2.40511E+03    99.100     0.000    80.005    67.074    42.913    23.770     5.036    23.485    42.387     2.898     0.575     0.072     0.003     0.000     0.076    13.212     0.158     0.030 .00000E+00 0.000E+00 0.000E+00 0.000E+00 0.000E+00 0.000E+00
BIGSUB  11        0    2.21116E+03    64.200     0.000    76.121    63.164    41.247     3.290     0.246     0.000     1.848     0.009     0.018     0.003     0.006     0.000     0.005     1.543     0.086     0.000 .00000E+00 0.000E+00 0.000E+00 0.000E+00 0.000E+00 0.000E+00
BIGSUB   1        0    3.31032E+03   119.100     0.000    91.970    70.911    40.582    33.114     4.371    37.462    53.321    15.208     1.416     0.173     0.001     0.000     0.127    10.311     0.242     0.036 .00000E+00 0.000E+00 0.000E+00 0.000E+00 0.000E+00 0.000E+00
BIGSUB   2        0    3.24266E+03   108.400     0.000    70.043    61.575    52.777    26.914     0.342     0.832     8.091     0.081     0.342     0.042     0.004     0.000     0.029     6.792     0.831     0.002 .00000E+00 0.000E+00 0.000E+00 0.000E+00 0.000E+00 0.000E+00
BIGSUB   3        0    3.16038E+03    35.200     0.000    82.057    42.653    14.691     0.000     0.000     0.000     0.782     0.000     0.000     0.000     0.000     0.000     0.000     0.778     0.023     0.000 .00000E+00 0.000E+00 0.000E+00 0.000E+00 0.000E+00 0.000E+00
BIGSUB   4        0    3.74275E+03   106.000     0.000    80.138    68.167    47.072    21.379     2.819    13.770    28.403     0.816     1.159     0.128     0.032     0.001     0.198    11.404     0.308     0.019 .00000E+00 0.000E+00 0.000E+00 0.000E+00 0.000E+00 0.000E+00
BIGSUB   5        0    3.24150E+03   108.400     0.000    71.089    63.809    71.100     9.319     0.403     0.184     7.028     0.039     0.179     0.022     0.005     0.000     0.017     6.390     0.663     0.000 .00000E+00 0.000E+00 0.000E+00 0.000E+00 0.000E+00 0.000E+00
BIGSUB   6        0    3.36594E+03   106.000     0.000    79.878    67.910    46.389    30.312     2.570    22.046    30.666     1.969     1.685     0.202     0.008     0.000     0.138     5.436     0.271     0.031 .00000E+00 0.000E+00 0.000E+00 0.000E+00 0.000E+00 0.000E+00
BIGSUB   7        0    3.12040E+03   108.400     0.000    69.052    61.194    45.566    32.729     0.735     1.863    10.183     0.884     1.150     0.142     0.002     0.000     0.101     7.415     0.870     0.004 .00000E+00 0.000E+00 0.000E+00 0.000E+00 0.000E+00 0.000E+00
BIGSUB   8        0    3.40121E+03   108.000     0.000    70.926    66.381    68.550    32.800     1.357    10.841    21.343     0.035     0.251     0.032     0.013     0.001     0.026     8.816     0.285     0.012 .00000E+00 0.000E+00 0.000E+00 0.000E+00 0.000E+00 0.000E+00
BIGSUB   9        0    3.39891E+03   130.900     0.000    62.126    60.360    86.027    22.663     4.420     1.703    20.668     0.050     0.420     0.053     0.022     0.003     0.041    14.450     0.382     0.002 .00000E+00 0.000E+00 0.000E+00 0.000E+00 0.000E+00 0.000E+00
BIGSUB  10        0    3.40511E+03   119.100     0.000    91.960    74.619    40.280    27.155     7.790    30.709    51.529    10.992     0.925     0.114     0.176     0.000     0.127    12.037     0.484     0.101 .00000E+00 0.000E+00 0.000E+00 0.000E+00 0.000E+00 0.000E+00
BIGSUB  11        0    3.21116E+03   108.400     0.000    70.120    62.417    48.413    31.445     1.279     1.309     8.551     0.077     0.243     0.032     0.012     0.001     0.043     5.815     0.462     0.003 .00000E+00 0.000E+00 0.000E+00 0.000E+00 0.000E+00 0.000E+00
BIGSUB   1        0    4.31032E+03    39.200     0.000    60.215    38.532    34.778     4.094     0.497    28.682    32.704     2.078     0.167     0.020     0.000     0.000     0.015     2.298     0.016     0.022 .00000E+00 0.000E+00 0.000E+00 0.000E+00 0.000E+00 0.000E+00
BIGSUB   2        0    4.24266E+03    34.800     0.000    52.014    39.874    42.375     4.030     0.004     7.684     9.691     0.000     0.000     0.000     0.000     0.000     0.000     1.727     0.151     0.016 .00000E+00 0.000E+00 0.000E+00 0.000E+00 0.000E+00 0.000E+00
BIGSUB   3        0    4.16038E+03    12.500     0.000    70.514    21.314     5.585     0.000     0.000     0.000     0.375     0.000     0.000     0.000     0.000     0.000     0.000     0.373     0.008     0.000 .00000E+00 0.000E+00 0.000E+00 0.000E+00 0.000E+00 0.000E+00
BIGSUB   4        0    4.74275E+03    29.000     0.000    50.847    36.248    36.572     1.380     0.562    13.847    16.526     0.259     0.222     0.023     0.055     0.000     0.049     1.602     0.074     0.014 .00000E+00 0.000E+00 0.000E+00 0.000E+00 0.000E+00 0.000E+00
BIGSUB   5        0    4.24150E+03    34.800     0.000    52.824    42.454    60.609     1.456     0.004     2.248     4.049     0.000     0.000     0.000     0.000     0.000     0.000     1.698     0.128     0.004 .00000E+00 0.000E+00 0.000E+00 0.000E+00 0.000E+00 0.000E+00
BIGSUB   6        0    4.36594E+03    29.000     0.000    50.669    35.840    35.559     2.405     0.405    21.823    24.047     0.447     0.200     0.024     0.001     0.000     0.017     1.059     0.059     0.022 .00000E+00 0.000E+00 0.000E+00 0.000E+00 0.000E+00 0.000E+00
BIGSUB   7        0    4.12040E+03    34.800     0.000    51.248    40.766    33.906     4.330     0.032    10.498    12.700     0.055     0.056     0.007     0.000     0.000     0.005     1.820     0.155     0.018 .00000E+00 0.000E+00 0.000E+00 0.000E+00 0.000E+00 0.000E+00
BIGSUB   8        0    4.40121E+03    38.100     0.000    50.510    45.640    58.408     1.784     0.019    14.512    16.146     0.000     0.000     0.000     0.000     0.000     0.000     1.118     0.033     0.008 .00000E+00 0.000E+00 0.000E+00 0.000E+00 0.000E+00 0.000E+00
BIGSUB   9        0    4.39891E+03    38.100     0.000    46.223    43.456    75.954     2.829     0.006     5.733     8.287     0.000     0.000     0.000     0.000     0.000     0.000     2.320     0.006     0.003 .00000E+00 0.000E+00 0.000E+00 0.000E+00 0.000E+00 0.000E+00
BIGSUB  10        0    4.40511E+03    39.200     0.000    60.208    40.504    34.116     1.812     1.106    23.162    27.561     2.041     0.095     0.012     0.000     0.000     0.017     2.268     0.029     0.065 .00000E+00 0.000E+00 0.000E+00 0.000E+00 0.000E+00 0.000E+00
BIGSUB  11        0    4.21116E+03    34.800     0.000    52.074    42.284    35.945     3.959     0.012     9.112    10.778     0.001     0.001     0.000     0.000     0.000     0.000     1.333     0.087     0.016 .00000E+00 0.000E+00 0.000E+00 0.000E+00 0.000E+00 0.000E+00
BIGSUB   1        0    5.31032E+03     5.200     0.000   104.333    21.438    18.480     0.000     0.000    15.026    16.243     0.000     0.000     0.000     0.000     0.000     0.000     0.102     0.001     0.005 .00000E+00 0.000E+00 0.000E+00 0.000E+00 0.000E+00 0.000E+00
BIGSUB   2        0    5.24266E+03     2.000     0.000    85.299    34.885     9.490     0.000     0.000     6.980     7.328     0.000     0.000     0.000     0.000     0.000     0.000     0.035     0.002     0.007 .00000E+00 0.000E+00 0.000E+00 0.000E+00 0.000E+00 0.000E+00
BIGSUB   3        0    5.16038E+03     0.300     0.000   101.065     3.749     2.137     0.000     0.000     0.000     0.006     0.000     0.000     0.000     0.000     0.000     0.000     0.004     0.001     0.000 .00000E+00 0.000E+00 0.000E+00 0.000E+00 0.000E+00 0.000E+00
BIGSUB   4        0    5.74275E+03     0.700     0.000   114.646    28.342     8.931     0.000     0.000     7.418     7.935     0.000     0.000     0.000     0.000     0.000     0.000     0.021     0.001     0.003 .00000E+00 0.000E+00 0.000E+00 0.000E+00 0.000E+00 0.000E+00
BIGSUB   5        0    5.24150E+03     2.000     0.000    86.402    40.356    22.253     0.000     0.000     2.245     2.378     0.000     0.000     0.000     0.000     0.000     0.000     0.020     0.001     0.002 .00000E+00 0.000E+00 0.000E+00 0.000E+00 0.000E+00 0.000E+00
BIGSUB   6        0    5.36594E+03     0.700     0.000   114.412    27.347     7.010     0.000     0.000    11.786    12.552     0.000     0.000     0.000     0.000     0.000     0.000     0.037     0.002     0.006 .00000E+00 0.000E+00 0.000E+00 0.000E+00 0.000E+00 0.000E+00
BIGSUB   7        0    5.12040E+03     2.000     0.000    84.259    31.278     4.628     0.000     0.000     8.759     9.188     0.000     0.000     0.000     0.000     0.000     0.000     0.038     0.002     0.007 .00000E+00 0.000E+00 0.000E+00 0.000E+00 0.000E+00 0.000E+00
BIGSUB   8        0    5.40121E+03     1.100     0.000    87.361    48.036    11.472     0.000     0.000     9.276     9.813     0.000     0.000     0.000     0.000     0.000     0.000     0.033     0.001     0.002 .00000E+00 0.000E+00 0.000E+00 0.000E+00 0.000E+00 0.000E+00
BIGSUB   9        0    5.39891E+03     3.600     0.000    81.081    53.017    26.524     0.000     0.000     5.067     5.389     0.000     0.000     0.000     0.000     0.000     0.000     0.059     0.000     0.001 .00000E+00 0.000E+00 0.000E+00 0.000E+00 0.000E+00 0.000E+00
BIGSUB  10        0    5.40511E+03     5.200     0.000   104.325    18.305    20.899     0.000     0.000    11.142    12.208     0.000     0.000     0.000     0.000     0.000     0.000     0.145     0.004     0.013 .00000E+00 0.000E+00 0.000E+00 0.000E+00 0.000E+00 0.000E+00
BIGSUB  11        0    5.21116E+03     2.000     0.000    85.381    32.941     5.004     0.000     0.000     7.891     8.284     0.000     0.000     0.000     0.000     0.000     0.000     0.032     0.002     0.006 .00000E+00 0.000E+00 0.000E+00 0.000E+00 0.000E+00 0.000E+00
BIGSUB   1        0    6.31032E+03    12.900     0.000    88.975    14.596    16.489     0.000     0.000     1.350     2.501     0.000     0.000     0.000     0.000     0.000     0.000     0.291     0.001     0.000 .00000E+00 0.000E+00 0.000E+00 0.000E+00 0.000E+00 0.000E+00
BIGSUB   2        0    6.24266E+03     7.400     0.000    71.488    11.119     5.695     0.000     0.000     1.296     1.634     0.000     0.000     0.000     0.000     0.000     0.000     0.077     0.026     0.001 .00000E+00 0.000E+00 0.000E+00 0.000E+00 0.000E+00 0.000E+00
BIGSUB   3        0    6.16038E+03     5.400     0.000    82.161     4.780     2.617     0.000     0.000     0.000     0.140     0.000     0.000     0.000     0.000     0.000     0.000     0.138     0.009     0.000 .00000E+00 0.000E+00 0.000E+00 0.000E+00 0.000E+00 0.000E+00
BIGSUB   4        0    6.74275E+03     8.500     0.000    73.371     9.625     7.555     0.000     0.000     0.594     1.237     0.000     0.000     0.000     0.000     0.000     0.000     0.252     0.001     0.000 .00000E+00 0.000E+00 0.000E+00 0.000E+00 0.000E+00 0.000E+00
BIGSUB   5        0    6.24150E+03     7.400     0.000    72.093    15.779    13.788     0.000     0.000     0.306     0.486     0.000     0.000     0.000     0.000     0.000     0.000     0.086     0.022     0.000 .00000E+00 0.000E+00 0.000E+00 0.000E+00 0.000E+00 0.000E+00
BIGSUB   6        0    6.36594E+03     8.500     0.000    73.250    10.376     4.917     0.000     0.000     0.941     1.601     0.000     0.000     0.000     0.000     0.000     0.000     0.085     0.000     0.000 .00000E+00 0.000E+00 0.000E+00 0.000E+00 0.000E+00 0.000E+00
BIGSUB   7        0    6.12040E+03     7.400     0.000    70.917     8.129     3.819     0.000     0.000     1.437     1.842     0.000     0.000     0.000     0.000     0.000     0.000     0.081     0.020     0.001 .00000E+00 0.000E+00 0.000E+00 0.000E+00 0.000E+00 0.000E+00
BIGSUB   8        0    6.40121E+03     5.100     0.000    65.884    11.822     4.735     0.000     0.000     1.550     1.974     0.000     0.000     0.000     0.000     0.000     0.000     0.019     0.000     0.000 .00000E+00 0.000E+00 0.000E+00 0.000E+00 0.000E+00 0.000E+00
BIGSUB   9        0    6.39891E+03     5.500     0.000    62.602    21.121    10.881     0.000     0.000     1.273     1.517     0.000     0.000     0.000     0.000     0.000     0.000     0.024     0.000     0.000 .00000E+00 0.000E+00 0.000E+00 0.000E+00 0.000E+00 0.000E+00
BIGSUB  10        0    6.40511E+03    12.900     0.000    88.972    13.477    19.818     0.000     0.002     0.947     2.160     0.002     0.000     0.000     0.000     0.000     0.000     0.504     0.003     0.000 .00000E+00 0.000E+00 0.000E+00 0.000E+00 0.000E+00 0.000E+00
BIGSUB  11        0    6.21116E+03     7.400     0.000    71.532     7.631     4.704     0.000     0.000     1.275     1.647     0.000     0.000     0.000     0.000     0.000     0.000     0.071     0.009     0.001 .00000E+00 0.000E+00 0.000E+00 0.000E+00 0.000E+00 0.000E+00
BIGSUB   1        0    7.31032E+03     0.700     0.000   115.561    10.154     7.036     0.000     0.000     0.006     0.692     0.000     0.000     0.000     0.000     0.000     0.000     0.005     0.000     0.000 .00000E+00 0.000E+00 0.000E+00 0.000E+00 0.000E+00 0.000E+00
BIGSUB   2        0    7.24266E+03     0.500     0.000   100.944     4.661     1.534     0.000     0.000     0.000     0.215     0.000     0.000     0.000     0.000     0.000     0.000     0.002     0.001     0.000 .00000E+00 0.000E+00 0.000E+00 0.000E+00 0.000E+00 0.000E+00
BIGSUB   3        0    7.16038E+03     0.600     0.000    91.856     1.136     2.081     0.000     0.000     0.000     0.002     0.000     0.000     0.000     0.000     0.000     0.000     0.001     0.000     0.000 .00000E+00 0.000E+00 0.000E+00 0.000E+00 0.000E+00 0.000E+00
BIGSUB   4        0    7.74275E+03     0.500     0.000   107.420     2.964     5.091     0.000     0.000     0.001     0.315     0.000     0.000     0.000     0.000     0.000     0.000     0.002     0.000     0.000 .00000E+00 0.000E+00 0.000E+00 0.000E+00 0.000E+00 0.000E+00
BIGSUB   5        0    7.24150E+03     0.500     0.000   101.752     6.865     7.423     0.000     0.000     0.000     0.077     0.000     0.000     0.000     0.000     0.000     0.000     0.001     0.000     0.000 .00000E+00 0.000E+00 0.000E+00 0.000E+00 0.000E+00 0.000E+00
BIGSUB   6        0    7.36594E+03     0.500     0.000   107.274     3.864     1.312     0.000     0.000     0.001     0.463     0.000     0.000     0.000     0.000     0.000     0.000     0.004     0.000     0.000 .00000E+00 0.000E+00 0.000E+00 0.000E+00 0.000E+00 0.000E+00
BIGSUB   7        0    7.12040E+03     0.500     0.000   100.184     3.379     0.940     0.000     0.000     0.000     0.266     0.000     0.000     0.000     0.000     0.000     0.000     0.002     0.000     0.000 .00000E+00 0.000E+00 0.000E+00 0.000E+00 0.000E+00 0.000E+00
BIGSUB   8        0    7.40121E+03     0.600     0.000    89.402     2.386     2.948     0.000     0.000     0.017     0.344     0.000     0.000     0.000     0.000     0.000     0.000     0.001     0.000     0.000 .00000E+00 0.000E+00 0.000E+00 0.000E+00 0.000E+00 0.000E+00
BIGSUB   9        0    7.39891E+03     1.100     0.000    84.970     4.638     7.343     0.000     0.000     0.018     0.199     0.000     0.000     0.000     0.000     0.000     0.000     0.001     0.000     0.000 .00000E+00 0.000E+00 0.000E+00 0.000E+00 0.000E+00 0.000E+00
BIGSUB  10        0    7.40511E+03     0.700     0.000   115.556     8.874    11.644     0.000     0.000     0.005     0.568     0.000     0.000     0.000     0.000     0.000     0.000     0.005     0.000     0.000 .00000E+00 0.000E+00 0.000E+00 0.000E+00 0.000E+00 0.000E+00
BIGSUB  11        0    7.21116E+03     0.500     0.000   101.003     2.704     2.500     0.000     0.000     0.000     0.248     0.000     0.000     0.000     0.000     0.000     0.000     0.002     0.000     0.000 .00000E+00 0.000E+00 0.000E+00 0.000E+00 0.000E+00 0.000E+00
BIGSUB   1        0    8.31032E+03     1.600     0.000   140.823     4.521     4.115     0.000     0.000     0.000     0.510     0.000     0.000     0.000     0.000     0.000     0.000     0.000     0.000     0.000 .00000E+00 0.000E+00 0.000E+00 0.000E+00 0.000E+00 0.000E+00
BIGSUB   2        0    8.24266E+03     1.600     0.000   118.606     2.556     0.578     0.000     0.000     0.000     0.162     0.000     0.000     0.000     0.000     0.000     0.000     0.000     0.000     0.000 .00000E+00 0.000E+00 0.000E+00 0.000E+00 0.000E+00 0.000E+00
BIGSUB   3        0    8.16038E+03     1.400     0.000   113.663     1.394     2.087     0.000     0.000     0.000     0.001     0.000     0.000     0.000     0.000     0.000     0.000     0.000     0.000     0.000 .00000E+00 0.000E+00 0.000E+00 0.000E+00 0.000E+00 0.000E+00
BIGSUB   4        0    8.74275E+03     1.400     0.000   123.783     1.795     4.696     0.000     0.000     0.000     0.235     0.000     0.000     0.000     0.000     0.000     0.000     0.000     0.000     0.000 .00000E+00 0.000E+00 0.000E+00 0.000E+00 0.000E+00 0.000E+00
BIGSUB   5        0    8.24150E+03     1.600     0.000   119.458     6.732     2.291     0.000     0.000     0.000     0.058     0.000     0.000     0.000     0.000     0.000     0.000     0.000     0.000     0.000 .00000E+00 0.000E+00 0.000E+00 0.000E+00 0.000E+00 0.000E+00
BIGSUB   6        0    8.36594E+03     1.400     0.000   123.616     2.021     0.647     0.000     0.000     0.000     0.345     0.000     0.000     0.000     0.000     0.000     0.000     0.001     0.000     0.000 .00000E+00 0.000E+00 0.000E+00 0.000E+00 0.000E+00 0.000E+00
BIGSUB   7        0    8.12040E+03     1.600     0.000   117.803     2.051     0.489     0.000     0.000     0.000     0.200     0.000     0.000     0.000     0.000     0.000     0.000     0.000     0.000     0.000 .00000E+00 0.000E+00 0.000E+00 0.000E+00 0.000E+00 0.000E+00
BIGSUB   8        0    8.40121E+03     1.000     0.000   109.192     2.576     1.373     0.000     0.000     0.000     0.246     0.000     0.000     0.000     0.000     0.000     0.000     0.000     0.000     0.000 .00000E+00 0.000E+00 0.000E+00 0.000E+00 0.000E+00 0.000E+00
BIGSUB   9        0    8.39891E+03     0.900     0.000   101.830     3.891     4.352     0.000     0.000     0.000     0.137     0.000     0.000     0.000     0.000     0.000     0.000     0.000     0.000     0.000 .00000E+00 0.000E+00 0.000E+00 0.000E+00 0.000E+00 0.000E+00
BIGSUB  10        0    8.40511E+03     1.600     0.000   140.818     3.760     9.483     0.000     0.000     0.000     0.419     0.000     0.000     0.000     0.000     0.000     0.000     0.002     0.000     0.000 .00000E+00 0.000E+00 0.000E+00 0.000E+00 0.000E+00 0.000E+00
BIGSUB  11        0    8.21116E+03     1.600     0.000   118.669     1.835     2.265     0.000     0.000     0.000     0.186     0.000     0.000     0.000     0.000     0.000     0.000     0.000     0.000     0.000 .00000E+00 0.000E+00 0.000E+00 0.000E+00 0.000E+00 0.000E+00
BIGSUB   1        0    9.31032E+03    39.500     0.000    87.926    20.704    21.992     0.000     0.000     0.000     1.062     0.000     0.000     0.000     0.000     0.000     0.000     0.696     0.008     0.000 .00000E+00 0.000E+00 0.000E+00 0.000E+00 0.000E+00 0.000E+00
BIGSUB   2        0    9.24266E+03    29.600     0.000    75.135    21.152     8.600     0.000     0.000     0.000     0.458     0.000     0.000     0.000     0.000     0.000     0.000     0.340     0.006     0.000 .00000E+00 0.000E+00 0.000E+00 0.000E+00 0.000E+00 0.000E+00
BIGSUB   3        0    9.16038E+03    14.400     0.000    82.220    10.700     5.460     0.000     0.000     0.000     0.316     0.000     0.000     0.000     0.000     0.000     0.000     0.315     0.057     0.000 .00000E+00 0.000E+00 0.000E+00 0.000E+00 0.000E+00 0.000E+00
BIGSUB   4        0    9.74275E+03    69.300     0.000    77.099    39.935    29.857     0.000     0.883     0.000     4.151     0.183     0.165     0.017     0.005     0.000     0.043     3.099     0.065     0.000 .00000E+00 0.000E+00 0.000E+00 0.000E+00 0.000E+00 0.000E+00
BIGSUB   5        0    9.24150E+03    29.600     0.000    76.121    21.753     9.663     0.000     0.000     0.000     0.435     0.000     0.000     0.000     0.000     0.000     0.000     0.394     0.008     0.000 .00000E+00 0.000E+00 0.000E+00 0.000E+00 0.000E+00 0.000E+00
BIGSUB   6        0    9.36594E+03    69.300     0.000    76.885    39.825    30.087     0.000     0.986     0.000     2.178     0.867     0.251     0.031     0.003     0.000     0.022     0.944     0.038     0.000 .00000E+00 0.000E+00 0.000E+00 0.000E+00 0.000E+00 0.000E+00
BIGSUB   7        0    9.12040E+03    29.600     0.000    74.206    20.859     8.780     0.000     0.000     0.000     0.502     0.000     0.000     0.000     0.000     0.000     0.000     0.357     0.015     0.000 .00000E+00 0.000E+00 0.000E+00 0.000E+00 0.000E+00 0.000E+00
BIGSUB   8        0    9.40121E+03    23.900     0.000    71.799    17.765     7.249     0.000     0.000     0.000     0.407     0.000     0.000     0.000     0.000     0.000     0.000     0.230     0.006     0.000 .00000E+00 0.000E+00 0.000E+00 0.000E+00 0.000E+00 0.000E+00
BIGSUB   9        0    9.39891E+03    29.500     0.000    62.687    18.629    14.702     0.000     0.000     0.000     0.542     0.000     0.000     0.000     0.000     0.000     0.000     0.443     0.012     0.000 .00000E+00 0.000E+00 0.000E+00 0.000E+00 0.000E+00 0.000E+00
BIGSUB  10        0    9.40511E+03    39.500     0.000    87.918    20.482    26.914     0.000     0.003     0.000     1.673     0.001     0.000     0.000     0.000     0.000     0.000     1.370     0.015     0.000 .00000E+00 0.000E+00 0.000E+00 0.000E+00 0.000E+00 0.000E+00
BIGSUB  11        0    9.21116E+03    29.600     0.000    75.207    21.375    10.106     0.000     0.000     0.000     0.454     0.000     0.000     0.000     0.000     0.000     0.000     0.320     0.019     0.000 .00000E+00 0.000E+00 0.000E+00 0.000E+00 0.000E+00 0.000E+00
BIGSUB   1        0   10.31032E+03     4.900     0.000   116.137    19.250     7.642     0.000     0.000     0.000     0.503     0.000     0.000     0.000     0.000     0.000     0.000     0.222     0.000     0.000 .00000E+00 0.000E+00 0.000E+00 0.000E+00 0.000E+00 0.000E+00
BIGSUB   2        0   10.24266E+03     3.500     0.000   107.416    11.538     0.562     0.000     0.000     0.000     0.176     0.000     0.000     0.000     0.000     0.000     0.000     0.086     0.000     0.000 .00000E+00 0.000E+00 0.000E+00 0.000E+00 0.000E+00 0.000E+00
BIGSUB   3        0   10.16038E+03     1.800     0.000   127.276     5.179     2.081     0.000     0.000     0.000     0.012     0.000     0.000     0.000     0.000     0.000     0.000     0.012     0.001     0.000 .00000E+00 0.000E+00 0.000E+00 0.000E+00 0.000E+00 0.000E+00
BIGSUB   4        0   10.74275E+03     3.200     0.000   112.811    27.389     5.668     0.000     0.000     0.000     0.349     0.000     0.000     0.000     0.000     0.000     0.000     0.220     0.001     0.000 .00000E+00 0.000E+00 0.000E+00 0.000E+00 0.000E+00 0.000E+00
BIGSUB   5        0   10.24150E+03     3.500     0.000   108.677    12.449     0.714     0.000     0.000     0.000     0.113     0.000     0.000     0.000     0.000     0.000     0.000     0.081     0.000     0.000 .00000E+00 0.000E+00 0.000E+00 0.000E+00 0.000E+00 0.000E+00
BIGSUB   6        0   10.36594E+03     3.200     0.000   112.539    28.897     2.555     0.000     0.000     0.000     0.397     0.000     0.000     0.000     0.000     0.000     0.000     0.206     0.001     0.000 .00000E+00 0.000E+00 0.000E+00 0.000E+00 0.000E+00 0.000E+00
BIGSUB   7        0   10.12040E+03     3.500     0.000   106.226    11.339     0.941     0.000     0.000     0.000     0.204     0.000     0.000     0.000     0.000     0.000     0.000     0.093     0.001     0.000 .00000E+00 0.000E+00 0.000E+00 0.000E+00 0.000E+00 0.000E+00
BIGSUB   8        0   10.40121E+03     2.900     0.000   113.762     9.883     0.266     0.000     0.000     0.000     0.164     0.000     0.000     0.000     0.000     0.000     0.000     0.028     0.000     0.000 .00000E+00 0.000E+00 0.000E+00 0.000E+00 0.000E+00 0.000E+00
BIGSUB   9        0   10.39891E+03     4.700     0.000    92.152    15.049     4.346     0.000     0.000     0.000     0.162     0.000     0.000     0.000     0.000     0.000     0.000     0.085     0.000     0.000 .00000E+00 0.000E+00 0.000E+00 0.000E+00 0.000E+00 0.000E+00
BIGSUB  10        0   10.40511E+03     4.900     0.000   116.126    18.923    12.891     0.000     0.000     0.000     0.442     0.000     0.000     0.000     0.000     0.000     0.000     0.212     0.001     0.000 .00000E+00 0.000E+00 0.000E+00 0.000E+00 0.000E+00 0.000E+00
BIGSUB  11        0   10.21116E+03     3.500     0.000   107.508    11.237     2.370     0.000     0.000     0.000     0.167     0.000     0.000     0.000     0.000     0.000     0.000     0.064     0.001     0.000 .00000E+00 0.000E+00 0.000E+00 0.000E+00 0.000E+00 0.000E+00
BIGSUB   1        0   11.31032E+03    12.200     0.000   107.568    17.264     2.541     0.000     0.000     0.000     0.224     0.000     0.000     0.000     0.000     0.000     0.000     0.023     0.001     0.000 .00000E+00 0.000E+00 0.000E+00 0.000E+00 0.000E+00 0.000E+00
BIGSUB   2        0   11.24266E+03    11.900     0.000    92.160    11.864     0.576     0.000     0.000     0.000     0.080     0.000     0.000     0.000     0.000     0.000     0.000     0.015     0.001     0.000 .00000E+00 0.000E+00 0.000E+00 0.000E+00 0.000E+00 0.000E+00
BIGSUB   3        0   11.16038E+03     7.500     0.000    86.424     7.245     2.331     0.000     0.000     0.000     0.003     0.000     0.000     0.000     0.000     0.000     0.000     0.003     0.001     0.000 .00000E+00 0.000E+00 0.000E+00 0.000E+00 0.000E+00 0.000E+00
BIGSUB   4        0   11.74275E+03    14.600     0.000    85.136    14.817     5.359     0.000     0.000     0.000     0.162     0.000     0.000     0.000     0.000     0.000     0.000     0.069     0.007     0.000 .00000E+00 0.000E+00 0.000E+00 0.000E+00 0.000E+00 0.000E+00
BIGSUB   5        0   11.24150E+03    11.900     0.000    93.589    11.815     0.771     0.000     0.000     0.000     0.045     0.000     0.000     0.000     0.000     0.000     0.000     0.022     0.002     0.000 .00000E+00 0.000E+00 0.000E+00 0.000E+00 0.000E+00 0.000E+00
BIGSUB   6        0   11.36594E+03    14.600     0.000    84.799    15.794     1.256     0.000     0.000     0.000     0.146     0.000     0.000     0.000     0.000     0.000     0.000     0.010     0.002     0.000 .00000E+00 0.000E+00 0.000E+00 0.000E+00 0.000E+00 0.000E+00
BIGSUB   7        0   11.12040E+03    11.900     0.000    90.810    11.991     0.827     0.000     0.000     0.000     0.095     0.000     0.000     0.000     0.000     0.000     0.000     0.016     0.002     0.000 .00000E+00 0.000E+00 0.000E+00 0.000E+00 0.000E+00 0.000E+00
BIGSUB   8        0   11.40121E+03    22.800     0.000    96.221    17.854     5.065     0.000     0.000     0.000     0.201     0.000     0.000     0.000     0.000     0.000     0.000     0.104     0.004     0.000 .00000E+00 0.000E+00 0.000E+00 0.000E+00 0.000E+00 0.000E+00
BIGSUB   9        0   11.39891E+03    28.700     0.000    76.953    23.102     9.580     0.000     0.000     0.000     0.359     0.000     0.000     0.000     0.000     0.000     0.000     0.305     0.002     0.000 .00000E+00 0.000E+00 0.000E+00 0.000E+00 0.000E+00 0.000E+00
BIGSUB  10        0   11.40511E+03    12.200     0.000   107.557    16.768     8.250     0.000     0.000     0.000     0.220     0.000     0.000     0.000     0.000     0.000     0.000     0.055     0.002     0.000 .00000E+00 0.000E+00 0.000E+00 0.000E+00 0.000E+00 0.000E+00
BIGSUB  11        0   11.21116E+03    11.900     0.000    92.265    11.527     2.718     0.000     0.000     0.000     0.095     0.000     0.000     0.000     0.000     0.000     0.000     0.020     0.002     0.000 .00000E+00 0.000E+00 0.000E+00 0.000E+00 0.000E+00 0.000E+00
BIGSUB   1        0   12.31032E+03    95.800     0.000    92.379    51.235    44.324     0.082     0.015     0.000     1.773     0.022     0.007     0.001     0.000     0.000     0.001     1.606     0.011     0.000 .00000E+00 0.000E+00 0.000E+00 0.000E+00 0.000E+00 0.000E+00
BIGSUB   2        0   12.24266E+03    60.700     0.000    71.038    41.697    18.702     0.000     0.000     0.000     0.655     0.000     0.000     0.000     0.000     0.000     0.000     0.606     0.004     0.000 .00000E+00 0.000E+00 0.000E+00 0.000E+00 0.000E+00 0.000E+00
BIGSUB   3        0   12.16038E+03    70.400     0.000    72.847    41.187    29.224     0.000     0.021     0.000     1.846     0.000     0.001     0.000     0.000     0.000     0.001     1.825     0.058     0.000 .00000E+00 0.000E+00 0.000E+00 0.000E+00 0.000E+00 0.000E+00
BIGSUB   4        0   12.74275E+03    88.400     0.000    79.995    52.550    37.083     0.000     0.157     0.000     3.568     0.022     0.023     0.003     0.000     0.000     0.006     3.340     0.032     0.000 .00000E+00 0.000E+00 0.000E+00 0.000E+00 0.000E+00 0.000E+00
BIGSUB   5        0   12.24150E+03    60.700     0.000    72.269    40.296    20.194     0.000     0.000     0.000     0.751     0.000     0.000     0.000     0.000     0.000     0.000     0.733     0.006     0.000 .00000E+00 0.000E+00 0.000E+00 0.000E+00 0.000E+00 0.000E+00
BIGSUB   6        0   12.36594E+03    88.400     0.000    79.673    52.402    38.021     0.000     0.492     0.000     1.462     0.366     0.130     0.016     0.000     0.000     0.012     0.866     0.018     0.000 .00000E+00 0.000E+00 0.000E+00 0.000E+00 0.000E+00 0.000E+00
BIGSUB   7        0   12.12040E+03    60.700     0.000    69.876    38.692    21.916     0.000     0.000     0.000     0.686     0.000     0.000     0.000     0.000     0.000     0.000     0.625     0.008     0.000 .00000E+00 0.000E+00 0.000E+00 0.000E+00 0.000E+00 0.000E+00
BIGSUB   8        0   12.40121E+03   112.400     0.000    70.238    57.444    52.673     4.441     0.288     0.000     2.140     0.012     0.075     0.010     0.000     0.000     0.007     1.777     0.014     0.000 .00000E+00 0.000E+00 0.000E+00 0.000E+00 0.000E+00 0.000E+00
BIGSUB   9        0   12.39891E+03    95.300     0.000    77.177    62.339    40.249     0.000     0.000     0.000     1.839     0.000     0.000     0.000     0.000     0.000     0.000     1.797     0.004     0.000 .00000E+00 0.000E+00 0.000E+00 0.000E+00 0.000E+00 0.000E+00
BIGSUB  10        0   12.40511E+03    95.800     0.000    92.366    51.075    47.073     0.447     0.962     0.000     4.571     0.856     0.065     0.008     0.001     0.000     0.019     3.484     0.025     0.000 .00000E+00 0.000E+00 0.000E+00 0.000E+00 0.000E+00 0.000E+00
BIGSUB  11        0   12.21116E+03    60.700     0.000    71.128    39.363    23.254     0.000     0.000     0.000     0.664     0.000     0.000     0.000     0.000     0.000     0.000     0.607     0.007     0.000 .00000E+00 0.000E+00 0.000E+00 0.000E+00 0.000E+00 0.000E+00
BIGSUB   1        0 1983.31032E+03   669.900     0.000  1176.495   413.851    44.324   141.587    41.576   114.894   211.671   107.195    37.172     4.538     0.007     0.002     3.200    47.464     0.547     0.080 .00000E+00 0.000E+00 0.000E+00 0.000E+00 0.000E+00 0.000E+00
BIGSUB   2        0 1983.24266E+03   419.000     0.000  1005.433   360.843    18.702    33.514     0.346    16.793    31.901     0.081     0.342     0.042     0.004     0.000     0.029    12.974     1.186     0.026 .00000E+00 0.000E+00 0.000E+00 0.000E+00 0.000E+00 0.000E+00
BIGSUB   3        0 1983.16038E+03   234.500     0.000  1053.051   209.108    29.224     0.000     0.024     0.000     5.727     0.001     0.002     0.000     0.000     0.000     0.001     5.680     0.241     0.000 .00000E+00 0.000E+00 0.000E+00 0.000E+00 0.000E+00 0.000E+00
BIGSUB   4        0 1983.74275E+03   546.800     0.000  1059.658   411.472    37.083    59.882    14.690    40.065    99.978     3.228     7.136     0.794     0.156     0.008     0.967    42.093     1.062     0.042 .00000E+00 0.000E+00 0.000E+00 0.000E+00 0.000E+00 0.000E+00
BIGSUB   5        0 1983.24150E+03   419.000     0.000  1018.367   383.091    20.194    11.435     0.407     4.983    18.931     0.039     0.180     0.022     0.005     0.000     0.017    12.871     0.987     0.006 .00000E+00 0.000E+00 0.000E+00 0.000E+00 0.000E+00 0.000E+00
BIGSUB   6        0 1983.36594E+03   546.800     0.000  1056.792   414.205    38.021    88.772    13.913    64.337   101.861     8.691    12.225     1.456     0.040     0.003     0.976    18.987     0.906     0.070 .00000E+00 0.000E+00 0.000E+00 0.000E+00 0.000E+00 0.000E+00
BIGSUB   7        0 1983.12040E+03   419.000     0.000   993.222   350.379    21.916    42.278     1.180    22.558    40.208     1.538     1.999     0.246     0.002     0.000     0.175    14.231     1.294     0.030 .00000E+00 0.000E+00 0.000E+00 0.000E+00 0.000E+00 0.000E+00
BIGSUB   8        0 1983.40121E+03   521.200     0.000   961.127   395.858    52.673    63.547     5.018    39.398    67.644     0.199     1.215     0.155     0.078     0.005     0.113    20.221     0.804     0.027 .00000E+00 0.000E+00 0.000E+00 0.000E+00 0.000E+00 0.000E+00
BIGSUB   9        0 1983.39891E+03   508.300     0.000   897.813   430.966    40.249    28.332     4.599    14.032    45.099     0.054     0.448     0.057     0.024     0.003     0.043    24.956     0.634     0.005 .00000E+00 0.000E+00 0.000E+00 0.000E+00 0.000E+00 0.000E+00
BIGSUB  10        0 1983.40511E+03   669.900     0.000  1176.391   411.564    47.073   117.365    57.391    92.347   214.494    70.984    25.605     3.162     0.197     0.004     2.787    58.336     0.991     0.214 .00000E+00 0.000E+00 0.000E+00 0.000E+00 0.000E+00 0.000E+00
BIGSUB  11        0 1983.21116E+03   419.000     0.000  1006.384   355.385    23.254    38.869     2.110    19.587    35.232     0.096     0.302     0.040     0.024     0.002     0.058    11.469     0.738     0.026 .00000E+00 0.000E+00 0.000E+00 0.000E+00 0.000E+00 0.000E+00
BIGSUB   1        0    1.31032E+03   305.900     0.000    98.540    92.430    46.035   142.311    29.585    14.247    80.599    90.504    33.098     4.059     0.005     0.002     2.880    36.331     0.337     0.014 .00000E+00 0.000E+00 0.000E+00 0.000E+00 0.000E+00 0.000E+00
BIGSUB   2        0    1.24266E+03    92.200     0.000    91.912    69.810    39.357     0.000     0.000     0.000     1.835     0.000     0.000     0.000     0.000     0.000     0.000     1.799     0.049     0.000 .00000E+00 0.000E+00 0.000E+00 0.000E+00 0.000E+00 0.000E+00
BIGSUB   3        0    1.16038E+03    46.500     0.000    79.730    49.218    25.418     0.000     0.000     0.000     1.515     0.000     0.000     0.000     0.000     0.000     0.000     1.515     0.066     0.000 .00000E+00 0.000E+00 0.000E+00 0.000E+00 0.000E+00 0.000E+00
BIGSUB   4        0    1.74275E+03   152.400     0.000    88.442    78.564    50.461    35.353     6.089     0.698    25.737     1.331     3.347     0.352     0.033     0.003     0.449    18.836     0.407     0.001 .00000E+00 0.000E+00 0.000E+00 0.000E+00 0.000E+00 0.000E+00
BIGSUB   5        0    1.24150E+03    92.200     0.000    93.390    70.976    39.510     0.000     0.000     0.000     2.016     0.000     0.000     0.000     0.000     0.000     0.000     2.003     0.073     0.000 .00000E+00 0.000E+00 0.000E+00 0.000E+00 0.000E+00 0.000E+00
BIGSUB   6        0    1.36594E+03   152.400     0.000    88.115    78.663    49.580    52.713     5.621     1.206    15.299     3.606     5.930     0.689     0.015     0.001     0.466     8.298     0.465     0.002 .00000E+00 0.000E+00 0.000E+00 0.000E+00 0.000E+00 0.000E+00
BIGSUB   7        0    1.12040E+03    92.200     0.000    90.520    71.300    40.906     0.000     0.036     0.000     2.012     0.045     0.056     0.007     0.000     0.000     0.005     1.932     0.053     0.000 .00000E+00 0.000E+00 0.000E+00 0.000E+00 0.000E+00 0.000E+00
BIGSUB   8        0    1.40121E+03   125.400     0.000    76.240    67.208    73.407    28.352     0.554     1.971    11.032     0.005     0.045     0.006     0.017     0.001     0.004     8.381     0.411     0.002 .00000E+00 0.000E+00 0.000E+00 0.000E+00 0.000E+00 0.000E+00
BIGSUB   9        0    1.39891E+03   117.700     0.000    83.495    73.291    74.060     4.338     0.128     0.007     6.152     0.002     0.015     0.002     0.003     0.000     0.001     5.980     0.356     0.000 .00000E+00 0.000E+00 0.000E+00 0.000E+00 0.000E+00 0.000E+00
BIGSUB  10        0    1.40511E+03   305.900     0.000    98.528    91.971    48.885   122.183    42.071    12.087   100.501    62.826    23.409     2.895     0.013     0.003     2.588    45.973     0.492     0.029 .00000E+00 0.000E+00 0.000E+00 0.000E+00 0.000E+00 0.000E+00
BIGSUB  11        0    1.21116E+03    92.200     0.000    92.020    72.215    41.543     0.000     0.010     0.000     1.780     0.000     0.001     0.000     0.000     0.000     0.000     1.728     0.046     0.000 .00000E+00 0.000E+00 0.000E+00 0.000E+00 0.000E+00 0.000E+00
BIGSUB   1        0    2.31032E+03   163.200     0.000    77.274    76.104    45.226    67.685     0.860    57.871    82.767     1.897     0.432     0.053     0.000     0.000     0.038    22.767     0.401     0.092 .00000E+00 0.000E+00 0.000E+00 0.000E+00 0.000E+00 0.000E+00
BIGSUB   2        0    2.24266E+03   136.200     0.000    74.210    73.397    53.113    38.830     0.342     0.752    10.651     0.019     0.102     0.012     0.004     0.000     0.008     9.454     0.651     0.002 .00000E+00 0.000E+00 0.000E+00 0.000E+00 0.000E+00 0.000E+00
BIGSUB   3        0    2.16038E+03    76.200     0.000    59.692    54.942    42.477     0.933     0.015     0.000     3.203     0.001     0.001     0.000     0.001     0.000     0.000     3.188     0.226     0.000 .00000E+00 0.000E+00 0.000E+00 0.000E+00 0.000E+00 0.000E+00
BIGSUB   4        0    2.74275E+03   179.100     0.000    71.758    70.306    50.967    69.595     5.410    17.751    56.816     1.374     2.735     0.295     0.020     0.003     0.420    33.218     0.580     0.038 .00000E+00 0.000E+00 0.000E+00 0.000E+00 0.000E+00 0.000E+00
BIGSUB   5        0    2.24150E+03   136.200     0.000    75.566    74.618    75.052    15.823     0.613     0.157    10.122     0.011     0.084     0.010     0.009     0.001     0.008     9.315     0.709     0.000 .00000E+00 0.000E+00 0.000E+00 0.000E+00 0.000E+00 0.000E+00
BIGSUB   6        0    2.36594E+03   179.100     0.000    71.461    70.111    50.125    95.801     5.443    28.146    49.076     3.260     4.113     0.481     0.006     0.001     0.328    14.853     0.491     0.062 .00000E+00 0.000E+00 0.000E+00 0.000E+00 0.000E+00 0.000E+00
BIGSUB   7        0    2.12040E+03   136.200     0.000    72.931    71.838    45.576    48.136     0.649     1.192    12.395     0.658     1.014     0.124     0.001     0.000     0.088    10.423     0.711     0.003 .00000E+00 0.000E+00 0.000E+00 0.000E+00 0.000E+00 0.000E+00
BIGSUB   8        0    2.40121E+03   242.800     0.000    62.544    61.245    74.174   130.033    18.450    24.325    74.535     0.666     4.894     0.650     0.259     0.032     0.458    31.227     1.658     0.080 .00000E+00 0.000E+00 0.000E+00 0.000E+00 0.000E+00 0.000E+00
BIGSUB   9        0    2.39891E+03   148.700     0.000    69.767    69.242    86.774    41.801     2.917     3.372    28.498     0.034     0.397     0.051     0.095     0.005     0.041    22.077     1.427     0.009 .00000E+00 0.000E+00 0.000E+00 0.000E+00 0.000E+00 0.000E+00
BIGSUB  10        0    2.40511E+03   163.200     0.000    77.262    75.971    48.003    59.383     3.038    48.458    80.396     2.354     0.391     0.049     0.000     0.000     0.065    27.809     0.749     0.256 .00000E+00 0.000E+00 0.000E+00 0.000E+00 0.000E+00 0.000E+00
BIGSUB  11        0    2.21116E+03   136.200     0.000    74.310    73.126    48.659    46.079     1.081     1.040    10.714     0.025     0.110     0.014     0.006     0.001     0.025     8.472     0.377     0.002 .00000E+00 0.000E+00 0.000E+00 0.000E+00 0.000E+00 0.000E+00
BIGSUB   1        0    3.31032E+03   195.900     0.000    90.024    84.531    47.228    78.393     8.132    70.186    99.609    28.115     4.856     0.594     0.000     0.000     0.428    19.277     0.154     0.111 .00000E+00 0.000E+00 0.000E+00 0.000E+00 0.000E+00 0.000E+00
BIGSUB   2        0    3.24266E+03   152.600     0.000    71.038    70.869    55.638    60.231     4.941    16.899    34.215     0.705     3.831     0.454     0.043     0.003     0.316    11.931     0.608     0.035 .00000E+00 0.000E+00 0.000E+00 0.000E+00 0.000E+00 0.000E+00
BIGSUB   3        0    3.16038E+03    97.300     0.000    76.481    68.935    48.933    14.228     1.172     0.000     6.964     0.170     0.462     0.059     0.003     0.001     0.089     5.761     0.396     0.000 .00000E+00 0.000E+00 0.000E+00 0.000E+00 0.000E+00 0.000E+00
BIGSUB   4        0    3.74275E+03   257.900     0.000    79.317    78.183    51.802   102.836    29.184    46.378   120.221    12.708    27.258     3.123     0.663     0.011     3.263    43.549     1.051     0.102 .00000E+00 0.000E+00 0.000E+00 0.000E+00 0.000E+00 0.000E+00
BIGSUB   5        0    3.24150E+03   152.600     0.000    72.079    71.991    79.850    49.265     8.091     5.572    29.783     0.365     2.386     0.287     0.097     0.007     0.223    15.900     0.591     0.011 .00000E+00 0.000E+00 0.000E+00 0.000E+00 0.000E+00 0.000E+00
BIGSUB   6        0    3.36594E+03   257.900     0.000    79.053    77.910    51.323   143.909    25.169    68.917   115.416    22.349    44.141     5.159     0.058     0.004     3.453    19.760     1.002     0.159 .00000E+00 0.000E+00 0.000E+00 0.000E+00 0.000E+00 0.000E+00
BIGSUB   7        0    3.12040E+03   152.600     0.000    70.054    69.537    47.729    62.418     4.655    21.641    38.652     3.725     6.952     0.853     0.007     0.001     0.623    11.827     0.512     0.040 .00000E+00 0.000E+00 0.000E+00 0.000E+00 0.000E+00 0.000E+00
BIGSUB   8        0    3.40121E+03   146.300     0.000    71.075    70.638    74.378    56.270     4.526    64.441    85.544     0.110     0.802     0.106     0.487     0.006     0.084    15.086     0.914     0.282 .00000E+00 0.000E+00 0.000E+00 0.000E+00 0.000E+00 0.000E+00
BIGSUB   9        0    3.39891E+03   110.400     0.000    64.953    64.933    87.328    28.513     2.395    15.393    31.873     0.026     0.285     0.036     0.019     0.004     0.032    13.628     0.244     0.029 .00000E+00 0.000E+00 0.000E+00 0.000E+00 0.000E+00 0.000E+00
BIGSUB  10        0    3.40511E+03   195.900     0.000    90.014    85.209    50.023    66.771    13.578    59.700   100.482    18.081     2.641     0.325     0.475     0.000     0.318    25.463     0.409     0.327 .00000E+00 0.000E+00 0.000E+00 0.000E+00 0.000E+00 0.000E+00
BIGSUB  11        0    3.21116E+03   152.600     0.000    71.115    70.539    50.961    61.986     6.828    20.481    37.384     0.482     2.500     0.310     0.276     0.005     0.323     9.564     0.306     0.033 .00000E+00 0.000E+00 0.000E+00 0.000E+00 0.000E+00 0.000E+00
BIGSUB   1        0    4.31032E+03    62.500     0.000    63.016    45.264    40.695    17.429     0.953    63.130    76.021     3.466     0.550     0.067     0.000     0.000     0.049     9.628     0.141     0.085 .00000E+00 0.000E+00 0.000E+00 0.000E+00 0.000E+00 0.000E+00
BIGSUB   2        0    4.24266E+03    69.700     0.000    51.189    47.513    49.798    21.699     1.141    32.659    42.342     0.174     0.901     0.107     0.003     0.001     0.073     7.670     0.189     0.064 .00000E+00 0.000E+00 0.000E+00 0.000E+00 0.000E+00 0.000E+00
BIGSUB   3        0    4.16038E+03    22.600     0.000    69.866    44.958    25.778     0.185     0.005     0.000     1.546     0.000     0.002     0.000     0.000     0.000     0.000     1.428     0.060     0.000 .00000E+00 0.000E+00 0.000E+00 0.000E+00 0.000E+00 0.000E+00
BIGSUB   4        0    4.74275E+03    90.700     0.000    52.261    45.490    46.318    30.632     5.973    62.345    87.960     1.666     3.248     0.377     0.017     0.002     0.395    17.894     0.689     0.291 .00000E+00 0.000E+00 0.000E+00 0.000E+00 0.000E+00 0.000E+00
BIGSUB   5        0    4.24150E+03    69.700     0.000    52.093    49.100    73.750    17.786     2.011    16.112    28.439     0.104     0.607     0.073     0.006     0.001     0.058     9.744     0.217     0.025 .00000E+00 0.000E+00 0.000E+00 0.000E+00 0.000E+00 0.000E+00
BIGSUB   6        0    4.36594E+03    90.700     0.000    52.062    44.743    45.439    43.284     5.042    89.097   106.850     4.172     4.734     0.558     0.003     0.000     0.368    10.254     0.824     0.470 .00000E+00 0.000E+00 0.000E+00 0.000E+00 0.000E+00 0.000E+00
BIGSUB   7        0    4.12040E+03    69.700     0.000    50.336    46.068    42.128    22.917     1.020    38.131    47.856     1.950     1.771     0.217     0.001     0.000     0.156     7.731     0.239     0.072 .00000E+00 0.000E+00 0.000E+00 0.000E+00 0.000E+00 0.000E+00
BIGSUB   8        0    4.40121E+03    37.100     0.000    48.469    42.142    58.755     8.208     0.033    56.139    61.994     0.000     0.002     0.000     0.001     0.000     0.000     3.966     0.113     0.184 .00000E+00 0.000E+00 0.000E+00 0.000E+00 0.000E+00 0.000E+00
BIGSUB   9        0    4.39891E+03    23.300     0.000    48.815    38.106    68.913     2.271     0.010    18.414    21.389     0.000     0.001     0.000     0.000     0.000     0.000     2.330     0.071     0.017 .00000E+00 0.000E+00 0.000E+00 0.000E+00 0.000E+00 0.000E+00
BIGSUB  10        0    4.40511E+03    62.500     0.000    63.008    48.216    42.243    13.488     1.781    53.733    67.661     3.110     0.251     0.031     0.000     0.000     0.036    10.154     0.292     0.253 .00000E+00 0.000E+00 0.000E+00 0.000E+00 0.000E+00 0.000E+00
BIGSUB  11        0    4.21116E+03    69.700     0.000    51.255    47.523    44.893    22.464     1.629    37.049    45.454     0.141     0.583     0.072     0.003     0.001     0.078     5.822     0.121     0.060 .00000E+00 0.000E+00 0.000E+00 0.000E+00 0.000E+00 0.000E+00
BIGSUB   1        0    5.31032E+03    39.000     0.000    91.113    36.230    42.515     0.000     0.000    41.022    44.369     0.000     0.000     0.000     0.000     0.000     0.000     1.082     0.006     0.026 .00000E+00 0.000E+00 0.000E+00 0.000E+00 0.000E+00 0.000E+00
BIGSUB   2        0    5.24266E+03    20.200     0.000    76.824    53.079    16.617     0.000     0.003    26.005    27.501     0.000     0.000     0.000     0.000     0.000     0.000     0.460     0.002     0.023 .00000E+00 0.000E+00 0.000E+00 0.000E+00 0.000E+00 0.000E+00
BIGSUB   3        0    5.16038E+03    12.800     0.000    75.244    26.822    11.447     0.000     0.000     0.000     0.335     0.000     0.000     0.000     0.000     0.000     0.000     0.199     0.002     0.000 .00000E+00 0.000E+00 0.000E+00 0.000E+00 0.000E+00 0.000E+00
BIGSUB   4        0    5.74275E+03    29.400     0.000    76.373    54.769    19.748     0.000     0.000    45.586    48.821     0.000     0.000     0.000     0.000     0.000     0.000     1.300     0.012     0.113 .00000E+00 0.000E+00 0.000E+00 0.000E+00 0.000E+00 0.000E+00
BIGSUB   5        0    5.24150E+03    20.200     0.000    77.562    55.667    37.938     0.000     0.008    15.659    16.798     0.000     0.000     0.000     0.000     0.000     0.000     0.412     0.001     0.010 .00000E+00 0.000E+00 0.000E+00 0.000E+00 0.000E+00 0.000E+00
BIGSUB   6        0    5.36594E+03    29.400     0.000    76.213    53.911    18.547     0.000     0.259    64.987    68.878     0.410     0.016     0.002     0.000     0.000     0.002     0.914     0.021     0.184 .00000E+00 0.000E+00 0.000E+00 0.000E+00 0.000E+00 0.000E+00
BIGSUB   7        0    5.12040E+03    20.200     0.000    76.130    50.774    11.227     0.000     0.014    29.110    30.774     0.038     0.017     0.002     0.000     0.000     0.001     0.517     0.005     0.028 .00000E+00 0.000E+00 0.000E+00 0.000E+00 0.000E+00 0.000E+00
BIGSUB   8        0    5.40121E+03    10.300     0.000    74.544    43.512    25.441     0.000     0.000    32.565    34.470     0.000     0.000     0.000     0.000     0.000     0.000     0.115     0.004     0.046 .00000E+00 0.000E+00 0.000E+00 0.000E+00 0.000E+00 0.000E+00
BIGSUB   9        0    5.39891E+03    10.100     0.000    61.994    34.779    44.175     0.000     0.000    11.532    12.236     0.000     0.000     0.000     0.000     0.000     0.000     0.072     0.004     0.004 .00000E+00 0.000E+00 0.000E+00 0.000E+00 0.000E+00 0.000E+00
BIGSUB  10        0    5.40511E+03    39.000     0.000    91.108    34.592    44.386     0.000     0.712    34.165    38.233     0.868     0.022     0.003     0.000     0.000     0.009     1.415     0.013     0.079 .00000E+00 0.000E+00 0.000E+00 0.000E+00 0.000E+00 0.000E+00
BIGSUB  11        0    5.21116E+03    20.200     0.000    76.879    53.110    11.709     0.000     0.002    28.287    29.791     0.000     0.000     0.000     0.000     0.000     0.000     0.391     0.003     0.022 .00000E+00 0.000E+00 0.000E+00 0.000E+00 0.000E+00 0.000E+00
BIGSUB   1        0    6.31032E+03    41.200     0.000    75.164    40.090    37.135     4.319     0.020    19.000    23.319     0.025     0.005     0.001     0.000     0.000     0.000     2.477     0.021     0.005 .00000E+00 0.000E+00 0.000E+00 0.000E+00 0.000E+00 0.000E+00
BIGSUB   2        0    6.24266E+03    20.100     0.000    60.461    22.828    13.589     0.000     0.000    12.391    13.643     0.000     0.000     0.000     0.000     0.000     0.000     0.379     0.002     0.004 .00000E+00 0.000E+00 0.000E+00 0.000E+00 0.000E+00 0.000E+00
BIGSUB   3        0    6.16038E+03     9.900     0.000    70.534    14.776     6.353     0.000     0.000     0.000     0.478     0.000     0.000     0.000     0.000     0.000     0.000     0.363     0.002     0.000 .00000E+00 0.000E+00 0.000E+00 0.000E+00 0.000E+00 0.000E+00
BIGSUB   4        0    6.74275E+03    29.500     0.000    65.991    28.535    19.381     0.000     0.013    21.435    24.671     0.001     0.001     0.000     0.000     0.000     0.000     1.608     0.004     0.021 .00000E+00 0.000E+00 0.000E+00 0.000E+00 0.000E+00 0.000E+00
BIGSUB   5        0    6.24150E+03    20.100     0.000    61.161    27.741    29.962     0.000     0.000     7.849     8.883     0.000     0.000     0.000     0.000     0.000     0.000     0.414     0.001     0.002 .00000E+00 0.000E+00 0.000E+00 0.000E+00 0.000E+00 0.000E+00
BIGSUB   6        0    6.36594E+03    29.500     0.000    65.846    28.661    18.659     0.000     0.353    31.177    34.397     0.352     0.016     0.002     0.000     0.000     0.001     0.598     0.003     0.035 .00000E+00 0.000E+00 0.000E+00 0.000E+00 0.000E+00 0.000E+00
BIGSUB   7        0    6.12040E+03    20.100     0.000    59.802    20.309    10.700     0.000     0.000    13.787    15.142     0.000     0.000     0.000     0.000     0.000     0.000     0.400     0.002     0.005 .00000E+00 0.000E+00 0.000E+00 0.000E+00 0.000E+00 0.000E+00
BIGSUB   8        0    6.40121E+03    18.900     0.000    68.674    24.388    19.660     0.000     0.000    13.295    15.064     0.000     0.000     0.000     0.000     0.000     0.000     0.355     0.001     0.008 .00000E+00 0.000E+00 0.000E+00 0.000E+00 0.000E+00 0.000E+00
BIGSUB   9        0    6.39891E+03    27.200     0.000    51.150    24.733    46.073     0.000     0.016     2.859     3.943     0.000     0.001     0.000     0.000     0.000     0.000     0.564     0.004     0.001 .00000E+00 0.000E+00 0.000E+00 0.000E+00 0.000E+00 0.000E+00
BIGSUB  10        0    6.40511E+03    41.200     0.000    75.159    38.520    39.641     4.271     0.578    15.102    20.186     0.307     0.017     0.002     0.001     0.000     0.005     2.951     0.030     0.016 .00000E+00 0.000E+00 0.000E+00 0.000E+00 0.000E+00 0.000E+00
BIGSUB  11        0    6.21116E+03    20.100     0.000    60.512    20.405    11.134     0.000     0.000    13.439    14.709     0.000     0.000     0.000     0.000     0.000     0.000     0.334     0.002     0.004 .00000E+00 0.000E+00 0.000E+00 0.000E+00 0.000E+00 0.000E+00
BIGSUB   1        0    7.31032E+03     1.900     0.000   104.663    24.145    14.891     0.000     0.000     2.988     4.557     0.000     0.000     0.000     0.000     0.000     0.000     0.081     0.001     0.001 .00000E+00 0.000E+00 0.000E+00 0.000E+00 0.000E+00 0.000E+00
BIGSUB   2        0    7.24266E+03     1.000     0.000    93.681     8.500     6.089     0.000     0.000     0.951     1.683     0.000     0.000     0.000     0.000     0.000     0.000     0.014     0.000     0.000 .00000E+00 0.000E+00 0.000E+00 0.000E+00 0.000E+00 0.000E+00
BIGSUB   3        0    7.16038E+03     1.700     0.000    92.162     5.550     2.502     0.000     0.000     0.000     0.100     0.000     0.000     0.000     0.000     0.000     0.000     0.005     0.000     0.000 .00000E+00 0.000E+00 0.000E+00 0.000E+00 0.000E+00 0.000E+00
BIGSUB   4        0    7.74275E+03     2.400     0.000   101.272    12.774     9.007     0.000     0.000     5.952     7.290     0.000     0.000     0.000     0.000     0.000     0.000     0.016     0.000     0.003 .00000E+00 0.000E+00 0.000E+00 0.000E+00 0.000E+00 0.000E+00
BIGSUB   5        0    7.24150E+03     1.000     0.000    94.383    11.691    19.271     0.000     0.000     0.655     1.175     0.000     0.000     0.000     0.000     0.000     0.000     0.008     0.000     0.000 .00000E+00 0.000E+00 0.000E+00 0.000E+00 0.000E+00 0.000E+00
BIGSUB   6        0    7.36594E+03     2.400     0.000   101.142    13.639     6.618     0.000     0.000     9.437    11.323     0.000     0.000     0.000     0.000     0.000     0.000     0.030     0.001     0.005 .00000E+00 0.000E+00 0.000E+00 0.000E+00 0.000E+00 0.000E+00
BIGSUB   7        0    7.12040E+03     1.000     0.000    93.021     7.664     4.036     0.000     0.000     1.195     1.995     0.000     0.000     0.000     0.000     0.000     0.000     0.015     0.000     0.000 .00000E+00 0.000E+00 0.000E+00 0.000E+00 0.000E+00 0.000E+00
BIGSUB   8        0    7.40121E+03     1.900     0.000    80.718    10.212    11.347     0.000     0.000     0.944     2.084     0.000     0.000     0.000     0.000     0.000     0.000     0.010     0.000     0.000 .00000E+00 0.000E+00 0.000E+00 0.000E+00 0.000E+00 0.000E+00
BIGSUB   9        0    7.39891E+03     2.600     0.000    72.766    11.945    36.728     0.000     0.000     0.094     0.505     0.000     0.000     0.000     0.000     0.000     0.000     0.006     0.000     0.000 .00000E+00 0.000E+00 0.000E+00 0.000E+00 0.000E+00 0.000E+00
BIGSUB  10        0    7.40511E+03     1.900     0.000   104.659    22.240    19.301     0.000     0.000     2.752     4.082     0.000     0.000     0.000     0.000     0.000     0.000     0.058     0.003     0.002 .00000E+00 0.000E+00 0.000E+00 0.000E+00 0.000E+00 0.000E+00
BIGSUB  11        0    7.21116E+03     1.000     0.000    93.732     7.121     5.013     0.000     0.000     1.075     1.855     0.000     0.000     0.000     0.000     0.000     0.000     0.011     0.000     0.000 .00000E+00 0.000E+00 0.000E+00 0.000E+00 0.000E+00 0.000E+00
BIGSUB   1        0    8.31032E+03     8.800     0.000   111.428    17.596     5.958     0.000     0.000     0.226     1.461     0.000     0.000     0.000     0.000     0.000     0.000     0.104     0.031     0.000 .00000E+00 0.000E+00 0.000E+00 0.000E+00 0.000E+00 0.000E+00
BIGSUB   2        0    8.24266E+03     6.300     0.000   103.809     9.210     3.104     0.000     0.000     0.000     0.604     0.000     0.000     0.000     0.000     0.000     0.000     0.057     0.002     0.000 .00000E+00 0.000E+00 0.000E+00 0.000E+00 0.000E+00 0.000E+00
BIGSUB   3        0    8.16038E+03     4.300     0.000   100.964     3.569     3.142     0.000     0.000     0.000     0.156     0.000     0.000     0.000     0.000     0.000     0.000     0.083     0.006     0.000 .00000E+00 0.000E+00 0.000E+00 0.000E+00 0.000E+00 0.000E+00
BIGSUB   4        0    8.74275E+03     5.000     0.000    96.195     8.111     5.841     0.000     0.000     0.253     1.310     0.000     0.000     0.000     0.000     0.000     0.000     0.054     0.006     0.000 .00000E+00 0.000E+00 0.000E+00 0.000E+00 0.000E+00 0.000E+00
BIGSUB   5        0    8.24150E+03     6.300     0.000   104.742    18.773     6.717     0.000     0.000     0.000     0.460     0.000     0.000     0.000     0.000     0.000     0.000     0.069     0.003     0.000 .00000E+00 0.000E+00 0.000E+00 0.000E+00 0.000E+00 0.000E+00
BIGSUB   6        0    8.36594E+03     5.000     0.000    96.016     9.011     2.302     0.000     0.000     0.399     1.825     0.000     0.000     0.000     0.000     0.000     0.000     0.017     0.002     0.000 .00000E+00 0.000E+00 0.000E+00 0.000E+00 0.000E+00 0.000E+00
BIGSUB   7        0    8.12040E+03     6.300     0.000   102.931     7.467     2.790     0.000     0.000     0.001     0.657     0.000     0.000     0.000     0.000     0.000     0.000     0.059     0.006     0.000 .00000E+00 0.000E+00 0.000E+00 0.000E+00 0.000E+00 0.000E+00
BIGSUB   8        0    8.40121E+03     5.400     0.000    88.468    11.849     4.874     0.000     0.000     0.010     0.880     0.000     0.000     0.000     0.000     0.000     0.000     0.022     0.002     0.000 .00000E+00 0.000E+00 0.000E+00 0.000E+00 0.000E+00 0.000E+00
BIGSUB   9        0    8.39891E+03    11.600     0.000    65.356    14.105    34.089     0.000     0.000     0.000     0.428     0.000     0.000     0.000     0.000     0.000     0.000     0.123     0.014     0.000 .00000E+00 0.000E+00 0.000E+00 0.000E+00 0.000E+00 0.000E+00
BIGSUB  10        0    8.40511E+03     8.800     0.000   111.422    15.449    12.405     0.000     0.000     0.254     1.455     0.000     0.000     0.000     0.000     0.000     0.000     0.233     0.061     0.000 .00000E+00 0.000E+00 0.000E+00 0.000E+00 0.000E+00 0.000E+00
BIGSUB  11        0    8.21116E+03     6.300     0.000   103.877     6.828     4.419     0.000     0.000     0.000     0.641     0.000     0.000     0.000     0.000     0.000     0.000     0.056     0.005     0.000 .00000E+00 0.000E+00 0.000E+00 0.000E+00 0.000E+00 0.000E+00
BIGSUB   1        0    9.31032E+03    25.300     0.000    84.859    15.852    14.901     0.000     0.000     0.000     1.276     0.000     0.000     0.000     0.000     0.000     0.000     0.455     0.047     0.000 .00000E+00 0.000E+00 0.000E+00 0.000E+00 0.000E+00 0.000E+00
BIGSUB   2        0    9.24266E+03    10.900     0.000    79.175     9.580     4.327     0.000     0.000     0.000     0.497     0.000     0.000     0.000     0.000     0.000     0.000     0.100     0.004     0.000 .00000E+00 0.000E+00 0.000E+00 0.000E+00 0.000E+00 0.000E+00
BIGSUB   3        0    9.16038E+03     9.500     0.000    93.061     6.907     5.525     0.000     0.000     0.000     0.257     0.000     0.000     0.000     0.000     0.000     0.000     0.205     0.012     0.000 .00000E+00 0.000E+00 0.000E+00 0.000E+00 0.000E+00 0.000E+00
BIGSUB   4        0    9.74275E+03    44.400     0.000    81.975    19.683    27.713     0.000     0.930     0.000     3.513     0.070     0.056     0.006     0.002     0.000     0.012     1.856     0.027     0.000 .00000E+00 0.000E+00 0.000E+00 0.000E+00 0.000E+00 0.000E+00
BIGSUB   5        0    9.24150E+03    10.900     0.000    80.330    10.928     6.579     0.000     0.000     0.000     0.396     0.000     0.000     0.000     0.000     0.000     0.000     0.112     0.003     0.000 .00000E+00 0.000E+00 0.000E+00 0.000E+00 0.000E+00 0.000E+00
BIGSUB   6        0    9.36594E+03    44.400     0.000    81.718    19.856    27.287     0.000     0.628     0.000     2.219     0.599     0.026     0.003     0.001     0.000     0.002     0.568     0.008     0.000 .00000E+00 0.000E+00 0.000E+00 0.000E+00 0.000E+00 0.000E+00
BIGSUB   7        0    9.12040E+03    10.900     0.000    78.088     9.511     4.076     0.000     0.000     0.000     0.539     0.000     0.000     0.000     0.000     0.000     0.000     0.105     0.010     0.000 .00000E+00 0.000E+00 0.000E+00 0.000E+00 0.000E+00 0.000E+00
BIGSUB   8        0    9.40121E+03     7.100     0.000    75.790     8.369     3.581     0.000     0.000     0.000     0.638     0.000     0.000     0.000     0.000     0.000     0.000     0.025     0.002     0.000 .00000E+00 0.000E+00 0.000E+00 0.000E+00 0.000E+00 0.000E+00
BIGSUB   9        0    9.39891E+03     5.300     0.000    71.318    13.597    25.782     0.000     0.000     0.000     0.242     0.000     0.000     0.000     0.000     0.000     0.000     0.022     0.002     0.000 .00000E+00 0.000E+00 0.000E+00 0.000E+00 0.000E+00 0.000E+00
BIGSUB  10        0    9.40511E+03    25.300     0.000    84.849    15.647    21.137     0.000     0.041     0.000     1.598     0.010     0.001     0.000     0.007     0.000     0.000     0.854     0.075     0.000 .00000E+00 0.000E+00 0.000E+00 0.000E+00 0.000E+00 0.000E+00
BIGSUB  11        0    9.21116E+03    10.900     0.000    79.260     9.322     5.909     0.000     0.000     0.000     0.513     0.000     0.000     0.000     0.000     0.000     0.000     0.089     0.008     0.000 .00000E+00 0.000E+00 0.000E+00 0.000E+00 0.000E+00 0.000E+00
BIGSUB   1        0   10.31032E+03    48.800     0.000    78.649    33.077    29.559     0.000     0.000     0.000     1.355     0.000     0.000     0.000     0.000     0.000     0.000     0.724     0.011     0.000 .00000E+00 0.000E+00 0.000E+00 0.000E+00 0.000E+00 0.000E+00
BIGSUB   2        0   10.24266E+03    54.300     0.000    69.251    32.065    25.702     0.000     0.000     0.000     0.869     0.000     0.000     0.000     0.000     0.000     0.000     0.564     0.003     0.000 .00000E+00 0.000E+00 0.000E+00 0.000E+00 0.000E+00 0.000E+00
BIGSUB   3        0   10.16038E+03    20.600     0.000    70.136    14.637    11.059     0.000     0.000     0.000     0.342     0.000     0.000     0.000     0.000     0.000     0.000     0.302     0.006     0.000 .00000E+00 0.000E+00 0.000E+00 0.000E+00 0.000E+00 0.000E+00
BIGSUB   4        0   10.74275E+03    30.700     0.000    65.867    37.817    19.652     0.000     0.000     0.000     1.332     0.000     0.000     0.000     0.000     0.000     0.000     0.773     0.003     0.000 .00000E+00 0.000E+00 0.000E+00 0.000E+00 0.000E+00 0.000E+00
BIGSUB   5        0   10.24150E+03    54.300     0.000    70.398    33.137    26.790     0.000     0.000     0.000     0.898     0.000     0.000     0.000     0.000     0.000     0.000     0.680     0.002     0.000 .00000E+00 0.000E+00 0.000E+00 0.000E+00 0.000E+00 0.000E+00
BIGSUB   6        0   10.36594E+03    30.700     0.000    65.606    38.099    18.977     0.000     0.078     0.000     1.134     0.083     0.003     0.000     0.000     0.000     0.000     0.271     0.002     0.000 .00000E+00 0.000E+00 0.000E+00 0.000E+00 0.000E+00 0.000E+00
BIGSUB   7        0   10.12040E+03    54.300     0.000    68.169    31.965    25.460     0.000     0.039     0.000     0.961     0.055     0.030     0.004     0.000     0.000     0.003     0.589     0.006     0.000 .00000E+00 0.000E+00 0.000E+00 0.000E+00 0.000E+00 0.000E+00
BIGSUB   8        0   10.40121E+03    46.700     0.000    63.607    29.463    20.260     0.000     0.000     0.000     0.859     0.000     0.000     0.000     0.000     0.000     0.000     0.389     0.004     0.000 .00000E+00 0.000E+00 0.000E+00 0.000E+00 0.000E+00 0.000E+00
BIGSUB   9        0   10.39891E+03    74.000     0.000    58.003    37.788    60.068     0.000     0.014     0.000     1.711     0.000     0.000     0.000     0.000     0.000     0.000     1.529     0.011     0.000 .00000E+00 0.000E+00 0.000E+00 0.000E+00 0.000E+00 0.000E+00
BIGSUB  10        0   10.40511E+03    48.800     0.000    78.639    32.090    35.764     0.000     0.226     0.000     2.245     0.099     0.007     0.001     0.001     0.000     0.002     1.479     0.015     0.000 .00000E+00 0.000E+00 0.000E+00 0.000E+00 0.000E+00 0.000E+00
BIGSUB  11        0   10.21116E+03    54.300     0.000    69.336    32.552    26.848     0.000     0.041     0.000     0.923     0.001     0.002     0.000     0.000     0.000     0.000     0.556     0.005     0.000 .00000E+00 0.000E+00 0.000E+00 0.000E+00 0.000E+00 0.000E+00
BIGSUB   1        0   11.31032E+03    53.600     0.000    82.445    56.467    25.646     0.000     0.000     0.000     1.803     0.000     0.000     0.000     0.000     0.000     0.000     1.351     0.014     0.000 .00000E+00 0.000E+00 0.000E+00 0.000E+00 0.000E+00 0.000E+00
BIGSUB   2        0   11.24266E+03    43.300     0.000    80.308    52.235    16.223     0.000     0.000     0.000     0.989     0.000     0.000     0.000     0.000     0.000     0.000     0.770     0.001     0.000 .00000E+00 0.000E+00 0.000E+00 0.000E+00 0.000E+00 0.000E+00
BIGSUB   3        0   11.16038E+03    21.900     0.000    69.866    26.121     6.426     0.000     0.000     0.000     0.574     0.000     0.000     0.000     0.000     0.000     0.000     0.545     0.001     0.000 .00000E+00 0.000E+00 0.000E+00 0.000E+00 0.000E+00 0.000E+00
BIGSUB   4        0   11.74275E+03    30.700     0.000    83.355    36.458    13.096     0.000     0.000     0.000     1.404     0.000     0.000     0.000     0.000     0.000     0.000     1.004     0.013     0.000 .00000E+00 0.000E+00 0.000E+00 0.000E+00 0.000E+00 0.000E+00
BIGSUB   5        0   11.24150E+03    43.300     0.000    81.690    50.965    18.510     0.000     0.000     0.000     0.989     0.000     0.000     0.000     0.000     0.000     0.000     0.832     0.001     0.000 .00000E+00 0.000E+00 0.000E+00 0.000E+00 0.000E+00 0.000E+00
BIGSUB   6        0   11.36594E+03    30.700     0.000    83.038    37.934    10.969     0.000     0.003     0.000     0.935     0.003     0.000     0.000     0.000     0.000     0.000     0.370     0.003     0.000 .00000E+00 0.000E+00 0.000E+00 0.000E+00 0.000E+00 0.000E+00
BIGSUB   7        0   11.12040E+03    43.300     0.000    79.004    49.000    19.184     0.000     0.000     0.000     1.059     0.000     0.000     0.000     0.000     0.000     0.000     0.820     0.001     0.000 .00000E+00 0.000E+00 0.000E+00 0.000E+00 0.000E+00 0.000E+00
BIGSUB   8        0   11.40121E+03    62.100     0.000    82.630    55.968    25.537     0.000     0.000     0.000     1.237     0.000     0.000     0.000     0.000     0.000     0.000     0.901     0.001     0.000 .00000E+00 0.000E+00 0.000E+00 0.000E+00 0.000E+00 0.000E+00
BIGSUB   9        0   11.39891E+03    94.700     0.000    70.778    57.365    83.424     5.930     2.642     0.008     7.566     0.049     0.386     0.049     0.002     0.002     0.043     4.793     0.010     0.000 .00000E+00 0.000E+00 0.000E+00 0.000E+00 0.000E+00 0.000E+00
BIGSUB  10        0   11.40511E+03    53.600     0.000    82.433    55.205    32.134     0.000     0.170     0.000     2.745     0.062     0.005     0.001     0.003     0.000     0.002     2.188     0.025     0.000 .00000E+00 0.000E+00 0.000E+00 0.000E+00 0.000E+00 0.000E+00
BIGSUB  11        0   11.21116E+03    43.300     0.000    80.410    50.196    19.454     0.000     0.000     0.000     0.895     0.000     0.000     0.000     0.000     0.000     0.000     0.661     0.001     0.000 .00000E+00 0.000E+00 0.000E+00 0.000E+00 0.000E+00 0.000E+00
BIGSUB   1        0   12.31032E+03    96.000     0.000    90.493    73.029    43.827     1.806     0.001     0.000     2.955     0.000     0.000     0.000     0.000     0.000     0.000     2.607     0.119     0.000 .00000E+00 0.000E+00 0.000E+00 0.000E+00 0.000E+00 0.000E+00
BIGSUB   2        0   12.24266E+03    63.700     0.000    74.592    54.937    23.989     0.000     0.000     0.000     1.064     0.000     0.000     0.000     0.000     0.000     0.000     0.897     0.001     0.000 .00000E+00 0.000E+00 0.000E+00 0.000E+00 0.000E+00 0.000E+00
BIGSUB   3        0   12.16038E+03    64.100     0.000    81.857    45.829    22.629     0.000     0.000     0.000     1.949     0.000     0.000     0.000     0.000     0.000     0.000     1.927     0.002     0.000 .00000E+00 0.000E+00 0.000E+00 0.000E+00 0.000E+00 0.000E+00
BIGSUB   4        0   12.74275E+03    82.000     0.000    83.926    55.473    35.852     0.000     0.045     0.000     3.888     0.003     0.003     0.000     0.000     0.000     0.001     3.538     0.021     0.000 .00000E+00 0.000E+00 0.000E+00 0.000E+00 0.000E+00 0.000E+00
BIGSUB   5        0   12.24150E+03    63.700     0.000    75.877    53.919    27.160     0.000     0.000     0.000     1.161     0.000     0.000     0.000     0.000     0.000     0.000     1.042     0.002     0.000 .00000E+00 0.000E+00 0.000E+00 0.000E+00 0.000E+00 0.000E+00
BIGSUB   6        0   12.36594E+03    82.000     0.000    83.594    56.180    36.824     0.000     0.563     0.000     2.007     0.542     0.024     0.003     0.000     0.000     0.002     1.015     0.006     0.000 .00000E+00 0.000E+00 0.000E+00 0.000E+00 0.000E+00 0.000E+00
BIGSUB   7        0   12.12040E+03    63.700     0.000    73.379    53.308    28.480     0.000     0.009     0.000     1.153     0.009     0.006     0.001     0.000     0.000     0.000     0.963     0.003     0.000 .00000E+00 0.000E+00 0.000E+00 0.000E+00 0.000E+00 0.000E+00
BIGSUB   8        0   12.40121E+03   130.700     0.000    69.658    61.165    69.163    18.982     0.727     0.320     6.285     0.020     0.131     0.017     0.000     0.001     0.013     4.960     0.005     0.000 .00000E+00 0.000E+00 0.000E+00 0.000E+00 0.000E+00 0.000E+00
BIGSUB   9        0   12.39891E+03    99.300     0.000    76.492    70.361    86.350    15.737     1.112     2.703    13.156     0.010     0.107     0.013     0.001     0.001     0.014     9.163     0.002     0.000 .00000E+00 0.000E+00 0.000E+00 0.000E+00 0.000E+00 0.000E+00
BIGSUB  10        0   12.40511E+03    96.000     0.000    90.479    72.376    45.121     5.131     0.418     0.000     5.511     0.174     0.014     0.002     0.003     0.000     0.004     4.790     0.164     0.000 .00000E+00 0.000E+00 0.000E+00 0.000E+00 0.000E+00 0.000E+00
BIGSUB  11        0   12.21116E+03    63.700     0.000    74.686    53.554    28.670     0.000     0.000     0.000     1.034     0.000     0.000     0.000     0.000     0.000     0.000     0.855     0.002     0.000 .00000E+00 0.000E+00 0.000E+00 0.000E+00 0.000E+00 0.000E+00
BIGSUB   1        0 1984.31032E+03  1042.100     0.000  1047.668   594.815    43.827   311.943    39.552   268.669   420.089   124.009    38.942     4.774     0.005     0.002     3.396    96.885     1.285     0.334 .00000E+00 0.000E+00 0.000E+00 0.000E+00 0.000E+00 0.000E+00
BIGSUB   2        0 1984.24266E+03   670.500     0.000   926.450   504.024    23.989   120.760     6.428    89.657   135.892     0.898     4.835     0.573     0.050     0.004     0.398    34.094     1.512     0.127 .00000E+00 0.000E+00 0.000E+00 0.000E+00 0.000E+00 0.000E+00
BIGSUB   3        0 1984.16038E+03   387.400     0.000   939.592   362.265    22.629    15.346     1.192     0.000    17.419     0.170     0.465     0.059     0.004     0.001     0.090    15.520     0.781     0.000 .00000E+00 0.000E+00 0.000E+00 0.000E+00 0.000E+00 0.000E+00
BIGSUB   4        0 1984.74275E+03   934.200     0.000   946.732   526.164    35.852   238.415    47.645   200.398   382.962    17.152    36.647     4.153     0.735     0.019     4.540   123.645     2.813     0.569 .00000E+00 0.000E+00 0.000E+00 0.000E+00 0.000E+00 0.000E+00
BIGSUB   5        0 1984.24150E+03   670.500     0.000   939.271   529.506    27.160    82.874    10.724    46.004   101.120     0.480     3.078     0.371     0.111     0.009     0.289    40.530     1.603     0.049 .00000E+00 0.000E+00 0.000E+00 0.000E+00 0.000E+00 0.000E+00
BIGSUB   6        0 1984.36594E+03   934.200     0.000   943.864   528.720    36.824   335.708    43.160   293.366   409.360    35.376    59.004     6.898     0.084     0.007     4.623    56.947     2.828     0.917 .00000E+00 0.000E+00 0.000E+00 0.000E+00 0.000E+00 0.000E+00
BIGSUB   7        0 1984.12040E+03   670.500     0.000   914.364   488.743    28.480   133.470     6.421   105.057   153.197     6.481     9.846     1.207     0.009     0.001     0.877    35.381     1.549     0.148 .00000E+00 0.000E+00 0.000E+00 0.000E+00 0.000E+00 0.000E+00
BIGSUB   8        0 1984.40121E+03   834.700     0.000   862.418   486.159    69.163   241.845    24.291   194.009   294.622     0.801     5.874     0.779     0.764     0.040     0.559    65.438     3.115     0.602 .00000E+00 0.000E+00 0.000E+00 0.000E+00 0.000E+00 0.000E+00
BIGSUB   9        0 1984.39891E+03   724.900     0.000   794.886   510.246    86.350    98.590     9.234    54.382   127.698     0.121     1.192     0.152     0.120     0.012     0.131    60.286     2.146     0.060 .00000E+00 0.000E+00 0.000E+00 0.000E+00 0.000E+00 0.000E+00
BIGSUB  10        0 1984.40511E+03  1042.100     0.000  1047.560   587.487    45.121   271.226    62.613   226.251   425.095    87.892    26.757     3.307     0.502     0.004     3.030   123.366     2.328     0.962 .00000E+00 0.000E+00 0.000E+00 0.000E+00 0.000E+00 0.000E+00
BIGSUB  11        0 1984.21116E+03   670.500     0.000   927.391   496.491    28.670   130.529     9.590   101.371   145.692     0.649     3.195     0.396     0.285     0.007     0.426    28.540     0.875     0.121 .00000E+00 0.000E+00 0.000E+00 0.000E+00 0.000E+00 0.000E+00
BIGSUB   1        0    1.31032E+03   262.700     0.000    91.619    84.467    47.309   119.133    21.895    12.969    63.303    73.991    31.936     3.830     0.025     0.001     2.658    27.931     1.427     0.042 .00000E+00 0.000E+00 0.000E+00 0.000E+00 0.000E+00 0.000E+00
[...]
BIGSUB   6        0    8.36594E+03     9.900     0.000    86.893    10.345     4.933     0.000     0.000     0.000     0.606     0.000     0.000     0.000     0.000     0.000     0.000     0.054     0.011     0.000 .00000E+00 0.000E+00 0.000E+00 0.000E+00 0.000E+00 0.000E+00
BIGSUB   7        0    8.12040E+03     9.700     0.000    84.388     8.339     3.896     0.000     0.000     0.000     0.351     0.000     0.000     0.000     0.000     0.000     0.000     0.068     0.007     0.000 .00000E+00 0.000E+00 0.000E+00 0.000E+00 0.000E+00 0.000E+00
BIGSUB   8        0    8.40121E+03     5.100     0.000    83.948     6.016     1.668     0.000     0.000     0.000     0.221     0.000     0.000     0.000     0.000     0.000     0.000     0.006     0.021     0.000 .00000E+00 0.000E+00 0.000E+00 0.000E+00 0.000E+00 0.000E+00
BIGSUB   9        0    8.39891E+03     7.100     0.000    77.600     8.755     4.636     0.000     0.000     0.000     0.112     0.000     0.000     0.000     0.000     0.000     0.000     0.042     0.010     0.000 .00000E+00 0.000E+00 0.000E+00 0.000E+00 0.000E+00 0.000E+00
BIGSUB  10        0    8.40511E+03     6.600     0.000   117.926    10.028    10.688     0.000     0.000     0.000     0.601     0.000     0.000     0.000     0.000     0.000     0.000     0.092     0.005     0.000 .00000E+00 0.000E+00 0.000E+00 0.000E+00 0.000E+00 0.000E+00
BIGSUB  11        0    8.21116E+03     9.700     0.000    85.242     7.951     5.709     0.000     0.000     0.000     0.337     0.000     0.000     0.000     0.000     0.000     0.000     0.068     0.006     0.000 .00000E+00 0.000E+00 0.000E+00 0.000E+00 0.000E+00 0.000E+00
BIGSUB   1        0    9.31032E+03    31.800     0.000    94.634    17.394    19.284     0.000     0.000     0.000     0.968     0.000     0.000     0.000     0.000     0.000     0.000     0.531     0.007     0.000 .00000E+00 0.000E+00 0.000E+00 0.000E+00 0.000E+00 0.000E+00
BIGSUB   2        0    9.24266E+03    18.600     0.000    83.658    15.920     6.425     0.000     0.000     0.000     0.374     0.000     0.000     0.000     0.000     0.000     0.000     0.197     0.004     0.000 .00000E+00 0.000E+00 0.000E+00 0.000E+00 0.000E+00 0.000E+00
BIGSUB   3        0    9.16038E+03    17.700     0.000    80.265    11.034     9.278     0.000     0.000     0.000     0.404     0.000     0.000     0.000     0.000     0.000     0.000     0.402     0.272     0.000 .00000E+00 0.000E+00 0.000E+00 0.000E+00 0.000E+00 0.000E+00
BIGSUB   4        0    9.74275E+03    49.700     0.000    79.185    23.930    31.412     0.000     0.377     0.000     2.905     0.090     0.046     0.004     0.003     0.000     0.003     2.248     0.050     0.000 .00000E+00 0.000E+00 0.000E+00 0.000E+00 0.000E+00 0.000E+00
BIGSUB   5        0    9.24150E+03    18.600     0.000    84.785    17.211     7.374     0.000     0.000     0.000     0.323     0.000     0.000     0.000     0.000     0.000     0.000     0.233     0.004     0.000 .00000E+00 0.000E+00 0.000E+00 0.000E+00 0.000E+00 0.000E+00
BIGSUB   6        0    9.36594E+03    49.700     0.000    78.945    24.029    31.084     0.000     0.556     0.000     1.522     0.414     0.067     0.008     0.000     0.000     0.006     0.568     0.016     0.000 .00000E+00 0.000E+00 0.000E+00 0.000E+00 0.000E+00 0.000E+00
BIGSUB   7        0    9.12040E+03    18.600     0.000    82.595    15.616     6.645     0.000     0.000     0.000     0.410     0.000     0.000     0.000     0.000     0.000     0.000     0.205     0.009     0.000 .00000E+00 0.000E+00 0.000E+00 0.000E+00 0.000E+00 0.000E+00
BIGSUB   8        0    9.40121E+03     9.400     0.000    82.808     8.264     2.752     0.000     0.000     0.000     0.198     0.000     0.000     0.000     0.000     0.000     0.000     0.043     0.103     0.000 .00000E+00 0.000E+00 0.000E+00 0.000E+00 0.000E+00 0.000E+00
BIGSUB   9        0    9.39891E+03    14.900     0.000    70.884    12.262     7.089     0.000     0.000     0.000     0.220     0.000     0.000     0.000     0.000     0.000     0.000     0.169     0.012     0.000 .00000E+00 0.000E+00 0.000E+00 0.000E+00 0.000E+00 0.000E+00
BIGSUB  10        0    9.40511E+03    31.800     0.000    94.625    16.908    24.342     0.000     0.037     0.000     1.520     0.025     0.002     0.000     0.000     0.000     0.000     1.116     0.016     0.000 .00000E+00 0.000E+00 0.000E+00 0.000E+00 0.000E+00 0.000E+00
BIGSUB  11        0    9.21116E+03    18.600     0.000    83.740    15.870     8.237     0.000     0.000     0.000     0.379     0.000     0.000     0.000     0.000     0.000     0.000     0.185     0.007     0.000 .00000E+00 0.000E+00 0.000E+00 0.000E+00 0.000E+00 0.000E+00
BIGSUB   1        0   10.31032E+03    49.000     0.000    80.717    47.297    20.260     0.000     0.000     0.000     1.204     0.000     0.000     0.000     0.000     0.000     0.000     0.870     0.001     0.000 .00000E+00 0.000E+00 0.000E+00 0.000E+00 0.000E+00 0.000E+00
BIGSUB   2        0   10.24266E+03    36.800     0.000    76.330    37.838     5.023     0.000     0.000     0.000     0.533     0.000     0.000     0.000     0.000     0.000     0.000     0.396     0.002     0.000 .00000E+00 0.000E+00 0.000E+00 0.000E+00 0.000E+00 0.000E+00
BIGSUB   3        0   10.16038E+03    20.700     0.000    67.598    23.962     5.779     0.000     0.000     0.000     0.282     0.000     0.000     0.000     0.000     0.000     0.000     0.281     0.035     0.000 .00000E+00 0.000E+00 0.000E+00 0.000E+00 0.000E+00 0.000E+00
BIGSUB   4        0   10.74275E+03    34.600     0.000    78.127    50.765    14.355     0.000     0.000     0.000     1.258     0.000     0.000     0.000     0.000     0.000     0.000     1.044     0.007     0.000 .00000E+00 0.000E+00 0.000E+00 0.000E+00 0.000E+00 0.000E+00
BIGSUB   5        0   10.24150E+03    36.800     0.000    77.601    38.089     5.650     0.000     0.000     0.000     0.528     0.000     0.000     0.000     0.000     0.000     0.000     0.459     0.002     0.000 .00000E+00 0.000E+00 0.000E+00 0.000E+00 0.000E+00 0.000E+00
BIGSUB   6        0   10.36594E+03    34.600     0.000    77.822    50.530    13.710     0.000     0.029     0.000     0.845     0.024     0.003     0.000     0.000     0.000     0.000     0.512     0.006     0.000 .00000E+00 0.000E+00 0.000E+00 0.000E+00 0.000E+00 0.000E+00
BIGSUB   7        0   10.12040E+03    36.800     0.000    75.129    37.329     5.738     0.000     0.000     0.000     0.572     0.000     0.000     0.000     0.000     0.000     0.000     0.415     0.003     0.000 .00000E+00 0.000E+00 0.000E+00 0.000E+00 0.000E+00 0.000E+00
BIGSUB   8        0   10.40121E+03    28.500     0.000    79.100    27.202     3.821     0.000     0.000     0.000     0.354     0.000     0.000     0.000     0.000     0.000     0.000     0.235     0.074     0.000 .00000E+00 0.000E+00 0.000E+00 0.000E+00 0.000E+00 0.000E+00
BIGSUB   9        0   10.39891E+03    44.700     0.000    65.603    36.835    14.184     0.000     0.000     0.000     0.791     0.000     0.000     0.000     0.000     0.000     0.000     0.752     0.004     0.000 .00000E+00 0.000E+00 0.000E+00 0.000E+00 0.000E+00 0.000E+00
BIGSUB  10        0   10.40511E+03    49.000     0.000    80.706    47.132    24.880     0.000     0.002     0.000     1.689     0.001     0.000     0.000     0.000     0.000     0.000     1.406     0.002     0.000 .00000E+00 0.000E+00 0.000E+00 0.000E+00 0.000E+00 0.000E+00
BIGSUB  11        0   10.21116E+03    36.800     0.000    76.423    37.873     6.826     0.000     0.000     0.000     0.506     0.000     0.000     0.000     0.000     0.000     0.000     0.357     0.002     0.000 .00000E+00 0.000E+00 0.000E+00 0.000E+00 0.000E+00 0.000E+00
BIGSUB   1        0   11.31032E+03    24.700     0.000    94.542    28.276    16.363     0.000     0.000     0.000     0.466     0.000     0.000     0.000     0.000     0.000     0.000     0.226     0.001     0.000 .00000E+00 0.000E+00 0.000E+00 0.000E+00 0.000E+00 0.000E+00
BIGSUB   2        0   11.24266E+03    17.500     0.000    87.306    18.203     4.237     0.000     0.000     0.000     0.179     0.000     0.000     0.000     0.000     0.000     0.000     0.081     0.001     0.000 .00000E+00 0.000E+00 0.000E+00 0.000E+00 0.000E+00 0.000E+00
BIGSUB   3        0   11.16038E+03    14.300     0.000    79.776    14.205     5.709     0.000     0.000     0.000     0.146     0.000     0.000     0.000     0.000     0.000     0.000     0.146     0.013     0.000 .00000E+00 0.000E+00 0.000E+00 0.000E+00 0.000E+00 0.000E+00
BIGSUB   4        0   11.74275E+03    20.800     0.000    88.033    22.905    11.884     0.000     0.000     0.000     0.479     0.000     0.000     0.000     0.000     0.000     0.000     0.326     0.006     0.000 .00000E+00 0.000E+00 0.000E+00 0.000E+00 0.000E+00 0.000E+00
BIGSUB   5        0   11.24150E+03    17.500     0.000    88.385    18.012     5.033     0.000     0.000     0.000     0.151     0.000     0.000     0.000     0.000     0.000     0.000     0.102     0.001     0.000 .00000E+00 0.000E+00 0.000E+00 0.000E+00 0.000E+00 0.000E+00
BIGSUB   6        0   11.36594E+03    20.800     0.000    87.786    24.629     9.509     0.000     0.000     0.000     0.298     0.000     0.000     0.000     0.000     0.000     0.000     0.080     0.002     0.000 .00000E+00 0.000E+00 0.000E+00 0.000E+00 0.000E+00 0.000E+00
BIGSUB   7        0   11.12040E+03    17.500     0.000    86.287    18.158     4.991     0.000     0.000     0.000     0.198     0.000     0.000     0.000     0.000     0.000     0.000     0.086     0.002     0.000 .00000E+00 0.000E+00 0.000E+00 0.000E+00 0.000E+00 0.000E+00
BIGSUB   8        0   11.40121E+03    22.100     0.000    89.828    18.379     7.356     0.000     0.000     0.000     0.206     0.000     0.000     0.000     0.000     0.000     0.000     0.121     0.007     0.000 .00000E+00 0.000E+00 0.000E+00 0.000E+00 0.000E+00 0.000E+00
BIGSUB   9        0   11.39891E+03    23.200     0.000    75.940    28.160     8.961     0.000     0.000     0.000     0.261     0.000     0.000     0.000     0.000     0.000     0.000     0.233     0.001     0.000 .00000E+00 0.000E+00 0.000E+00 0.000E+00 0.000E+00 0.000E+00
BIGSUB  10        0   11.40511E+03    24.700     0.000    94.534    27.592    21.404     0.000     0.000     0.000     0.692     0.000     0.000     0.000     0.000     0.000     0.000     0.492     0.002     0.000 .00000E+00 0.000E+00 0.000E+00 0.000E+00 0.000E+00 0.000E+00
BIGSUB  11        0   11.21116E+03    17.500     0.000    87.386    17.715     6.524     0.000     0.000     0.000     0.192     0.000     0.000     0.000     0.000     0.000     0.000     0.085     0.001     0.000 .00000E+00 0.000E+00 0.000E+00 0.000E+00 0.000E+00 0.000E+00
BIGSUB   1        0   12.31032E+03    91.900     0.000    96.384    64.766    41.061     0.000     0.000     0.000     1.963     0.000     0.000     0.000     0.000     0.000     0.000     1.780     0.004     0.000 .00000E+00 0.000E+00 0.000E+00 0.000E+00 0.000E+00 0.000E+00
BIGSUB   2        0   12.24266E+03    60.700     0.000    78.637    43.079    20.924     0.000     0.000     0.000     0.769     0.000     0.000     0.000     0.000     0.000     0.000     0.695     0.003     0.000 .00000E+00 0.000E+00 0.000E+00 0.000E+00 0.000E+00 0.000E+00
BIGSUB   3        0   12.16038E+03    62.700     0.000    81.965    43.971    22.549     0.000     0.000     0.000     1.610     0.000     0.000     0.000     0.000     0.000     0.000     1.609     0.016     0.000 .00000E+00 0.000E+00 0.000E+00 0.000E+00 0.000E+00 0.000E+00
BIGSUB   4        0   12.74275E+03    81.100     0.000    88.711    53.409    35.933     0.000     0.208     0.000     3.264     0.067     0.034     0.004     0.000     0.000     0.004     2.939     0.015     0.000 .00000E+00 0.000E+00 0.000E+00 0.000E+00 0.000E+00 0.000E+00
BIGSUB   5        0   12.24150E+03    60.700     0.000    79.893    42.274    22.406     0.000     0.000     0.000     0.861     0.000     0.000     0.000     0.000     0.000     0.000     0.823     0.003     0.000 .00000E+00 0.000E+00 0.000E+00 0.000E+00 0.000E+00 0.000E+00
BIGSUB   6        0   12.36594E+03    81.100     0.000    88.392    53.842    37.096     0.000     0.483     0.000     1.454     0.664     0.075     0.009     0.000     0.000     0.007     0.805     0.005     0.000 .00000E+00 0.000E+00 0.000E+00 0.000E+00 0.000E+00 0.000E+00
BIGSUB   7        0   12.12040E+03    60.700     0.000    77.451    39.288    25.401     0.000     0.013     0.000     0.825     0.018     0.005     0.001     0.000     0.000     0.001     0.727     0.004     0.000 .00000E+00 0.000E+00 0.000E+00 0.000E+00 0.000E+00 0.000E+00
BIGSUB   8        0   12.40121E+03    95.200     0.000    81.810    61.634    39.099     0.185     0.002     0.000     1.342     0.000     0.001     0.000     0.000     0.000     0.000     1.275     0.012     0.000 .00000E+00 0.000E+00 0.000E+00 0.000E+00 0.000E+00 0.000E+00
BIGSUB   9        0   12.39891E+03    93.100     0.000    85.134    61.383    38.414     0.000     0.002     0.000     1.810     0.000     0.000     0.000     0.000     0.000     0.000     1.786     0.004     0.000 .00000E+00 0.000E+00 0.000E+00 0.000E+00 0.000E+00 0.000E+00
BIGSUB  10        0   12.40511E+03    91.900     0.000    96.371    63.967    44.681     0.054     0.483     0.000     4.132     0.427     0.025     0.003     0.001     0.000     0.008     3.495     0.011     0.000 .00000E+00 0.000E+00 0.000E+00 0.000E+00 0.000E+00 0.000E+00
BIGSUB  11        0   12.21116E+03    60.700     0.000    78.729    40.127    26.257     0.000     0.001     0.000     0.740     0.000     0.000     0.000     0.000     0.000     0.000     0.658     0.003     0.000 .00000E+00 0.000E+00 0.000E+00 0.000E+00 0.000E+00 0.000E+00
BIGSUB   1        0 2016.31032E+03   711.800     0.000  1136.805   503.472    41.061   147.708    12.448   131.283   202.396    44.761    13.875     1.684     0.015     0.000     1.185    50.240     0.627     0.128 .00000E+00 0.000E+00 0.000E+00 0.000E+00 0.000E+00 0.000E+00
BIGSUB   2        0 2016.24266E+03   493.700     0.000   985.875   420.469    20.924    54.509     6.582    34.201    61.479     2.862    10.366     1.188     0.034     0.004     0.429    17.740     1.874     0.087 .00000E+00 0.000E+00 0.000E+00 0.000E+00 0.000E+00 0.000E+00
BIGSUB   3        0 2016.16038E+03   293.800     0.000   977.427   285.351    22.549     0.000     0.013     0.000     7.198     0.001     0.005     0.000     0.002     0.000     0.001     7.132     1.344     0.000 .00000E+00 0.000E+00 0.000E+00 0.000E+00 0.000E+00 0.000E+00
BIGSUB   4        0 2016.74275E+03   643.000     0.000  1009.430   478.079    35.933    95.813    12.869    72.619   149.482     6.020     7.779     0.852     0.049     0.007     0.522    59.004     1.699     0.138 .00000E+00 0.000E+00 0.000E+00 0.000E+00 0.000E+00 0.000E+00
BIGSUB   5        0 2016.24150E+03   493.700     0.000   998.548   446.186    22.406    26.565     7.314    12.705    40.289     1.387     5.945     0.694     0.035     0.007     0.266    18.724     1.906     0.024 .00000E+00 0.000E+00 0.000E+00 0.000E+00 0.000E+00 0.000E+00
BIGSUB   6        0 2016.36594E+03   643.000     0.000  1006.568   481.393    37.096   136.884    13.820   110.069   157.143    11.775    12.012     1.372     0.012     0.002     0.625    26.131     1.379     0.219 .00000E+00 0.000E+00 0.000E+00 0.000E+00 0.000E+00 0.000E+00
BIGSUB   7        0 2016.12040E+03   493.700     0.000   973.905   409.013    25.401    63.558     7.125    42.159    71.629     5.883    11.288     1.373     0.020     0.003     0.649    18.930     1.986     0.103 .00000E+00 0.000E+00 0.000E+00 0.000E+00 0.000E+00 0.000E+00
BIGSUB   8        0 2016.40121E+03   468.600     0.000   939.066   400.243    39.099    53.065     3.393    36.778    61.223     0.109     1.432     0.164     0.186     0.025     0.105    18.032     6.298     0.218 .00000E+00 0.000E+00 0.000E+00 0.000E+00 0.000E+00 0.000E+00
BIGSUB   9        0 2016.39891E+03   499.300     0.000   894.762   459.590    38.414    14.201     2.912     6.191    28.319     0.031     0.459     0.060     0.030     0.012     0.042    18.247     1.311     0.007 .00000E+00 0.000E+00 0.000E+00 0.000E+00 0.000E+00 0.000E+00
BIGSUB  10        0 2016.40511E+03   711.800     0.000  1136.700   499.181    44.681   124.927    23.724   108.217   203.362    35.354     8.637     1.058     0.054     0.001     0.850    64.287     1.068     0.372 .00000E+00 0.000E+00 0.000E+00 0.000E+00 0.000E+00 0.000E+00
BIGSUB  11        0 2016.21116E+03   493.700     0.000   986.807   414.101    26.257    59.931     8.856    38.682    65.965     1.208     6.118     0.761     0.036     0.009     0.440    15.187     1.115     0.085 .00000E+00 0.000E+00 0.000E+00 0.000E+00 0.000E+00 0.000E+00
BIGSUB   1        0 34.0.31032E+03   953.221     0.000  1089.291   539.337    41.061   278.977    48.434   243.303   391.534   177.490    40.280     4.875     0.134     0.002     3.369    85.831     1.130     0.323 .00000E+00 0.000E+00 0.000E+00 0.000E+00 0.000E+00 0.000E+00
BIGSUB   2        0 34.0.24266E+03   617.747     0.000   942.245   464.682    20.924   113.423     7.794    88.942   133.859     1.846     8.649     1.068     0.133     0.008     0.620    31.451     2.179     0.214 .00000E+00 0.000E+00 0.000E+00 0.000E+00 0.000E+00 0.000E+00
BIGSUB   3        0 34.0.16038E+03   333.032     0.000   952.094   312.370    22.549     8.338     0.560     0.000    12.365     0.039     0.220     0.026     0.013     0.001     0.032    11.388     1.077     0.000 .00000E+00 0.000E+00 0.000E+00 0.000E+00 0.000E+00 0.000E+00
BIGSUB   4        0 34.0.74275E+03   766.391     0.000   973.464   495.285    35.933   155.017    29.782   127.806   251.135     9.336    16.986     1.976     0.203     0.016     1.665    85.796     1.721     0.207 .00000E+00 0.000E+00 0.000E+00 0.000E+00 0.000E+00 0.000E+00
BIGSUB   5        0 34.0.24150E+03   617.747     0.000   954.963   489.519    22.406    78.985    11.146    56.005   108.805     0.894     5.282     0.653     0.141     0.016     0.400    37.703     2.298     0.091 .00000E+00 0.000E+00 0.000E+00 0.000E+00 0.000E+00 0.000E+00
BIGSUB   6        0 34.0.36594E+03   766.391     0.000   970.623   497.990    37.096   219.867    28.096   188.084   266.203    21.131    25.762     3.043     0.067     0.005     1.710    39.030     1.453     0.328 .00000E+00 0.000E+00 0.000E+00 0.000E+00 0.000E+00 0.000E+00
BIGSUB   7        0 34.0.12040E+03   617.747     0.000   930.247   450.464    25.401   126.076     8.160   101.198   148.287     6.380    10.819     1.379     0.086     0.004     0.890    32.623     2.017     0.184 .00000E+00 0.000E+00 0.000E+00 0.000E+00 0.000E+00 0.000E+00
BIGSUB   8        0 34.0.40121E+03   660.926     0.000   885.361   453.717    39.099   152.563    10.466   127.280   188.895     0.268     3.492     0.436     0.415     0.051     0.300    43.518     5.523     0.554 .00000E+00 0.000E+00 0.000E+00 0.000E+00 0.000E+00 0.000E+00
BIGSUB   9        0 34.0.39891E+03   685.115     0.000   838.145   496.273    38.414   111.463    14.488    89.411   171.850     0.222     3.003     0.380     0.296     0.043     0.314    62.374     3.345     0.154 .00000E+00 0.000E+00 0.000E+00 0.000E+00 0.000E+00 0.000E+00
BIGSUB  10        0 34.0.40511E+03   953.220     0.000  1089.185   534.215    44.681   240.031    70.182   206.320   396.647   114.138    27.580     3.378     0.581     0.002     2.531   108.129     1.939     0.895 .00000E+00 0.000E+00 0.000E+00 0.000E+00 0.000E+00 0.000E+00
BIGSUB  11        0 34.0.21116E+03   617.747     0.000   943.179   456.699    26.257   122.984    11.381    98.004   141.804     0.965     5.343     0.711     0.126     0.014     0.598    26.268     1.140     0.166 .00000E+00 0.000E+00 0.000E+00 0.000E+00 0.000E+00 0.000E+00
