1
    SWAT Dec 23 2016    VER 2016/Rev 664                                                                 0/ 0/   0      0: 0: 0

    General Input/Output section (file.cio):                                        
    12/4/2021 12:00:00 AM ARCGIS-SWAT interface AV                                  
                                                                                    


       SUB      GIS  MON   AREAkm2  PRECIPmm SNOMELTmm     PETmm      ETmm      SWmm    PERCmm    SURQmm    GW_Qmm    WYLDmm  SYLDt/ha ORGNkg/ha ORGPkg/haNSURQkg/ha SOLPkg/ha SEDPkg/ha LAT Q(mm)LATNO3kg/hGWNO3kg/haCHOLAmic/LCBODU mg/L DOXQ mg/L TNO3kg/ha   QTILEmm TVAPkg/ha
BIGSUB   1        0    1.31032E+03   205.600     0.000    99.212    90.825    46.659    84.706     5.486    29.543    61.785    15.192     7.129     0.874     0.000     0.000     0.618    25.943     0.114     0.018 .00000E+00 0.000E+00 0.000E+00 0.000E+00 0.000E+00 0.000E+00
BIGSUB   2        0    1.24266E+03    80.700     0.000    94.492    81.694    47.641     2.434     0.001     0.000     2.297     0.000     0.000     0.000     0.000     0.000     0.000     2.197     0.030     0.000 .00000E+00 0.000E+00 0.000E+00 0.000E+00 0.000E+00 0.000E+00
BIGSUB   3        0    1.16038E+03    71.500     0.000    77.535    65.460    42.335     8.324     0.324    21.342    27.385     0.093     0.101     0.013     0.001     0.000     0.020     5.048     0.095     0.015 .00000E+00 0.000E+00 0.000E+00 0.000E+00 0.000E+00 0.000E+00
BIGSUB   4        0    1.74275E+03   150.900     0.000    83.821    78.686    51.227    45.809     3.158    17.055    44.114     2.751     0.981     0.121     0.001     0.000     0.197    23.264     0.130     0.008 .00000E+00 0.000E+00 0.000E+00 0.000E+00 0.000E+00 0.000E+00
BIGSUB   5        0    1.24150E+03    80.700     0.000    95.963    82.160    63.967     0.756     0.001     0.000     1.955     0.000     0.000     0.000     0.000     0.000     0.000     1.900     0.017     0.000 .00000E+00 0.000E+00 0.000E+00 0.000E+00 0.000E+00 0.000E+00
BIGSUB   6        0    1.36594E+03   150.900     0.000    83.493    78.970    50.434    63.114     3.450    25.879    40.615     3.611     2.364     0.290     0.001     0.000     0.202    10.371     0.069     0.012 .00000E+00 0.000E+00 0.000E+00 0.000E+00 0.000E+00 0.000E+00
BIGSUB   7        0    1.12040E+03    80.700     0.000    93.099    80.893    41.889     3.280     0.041     0.000     2.678     0.069     0.077     0.009     0.000     0.000     0.007     2.523     0.052     0.000 .00000E+00 0.000E+00 0.000E+00 0.000E+00 0.000E+00 0.000E+00
BIGSUB   8        0    1.40121E+03   105.800     0.000    75.136    68.669    74.329    25.675     0.229     5.164    13.212     0.005     0.062     0.007     0.001     0.000     0.007     7.549     0.780     0.020 .00000E+00 0.000E+00 0.000E+00 0.000E+00 0.000E+00 0.000E+00
BIGSUB   9        0    1.39891E+03   111.000     0.000    87.388    77.933    85.990    20.261     0.770     5.086    18.541     0.006     0.070     0.010     0.025     0.001     0.007    12.467     0.304     0.007 .00000E+00 0.000E+00 0.000E+00 0.000E+00 0.000E+00 0.000E+00
BIGSUB  10        0    1.40511E+03   205.600     0.000    99.199    90.399    49.486    73.553    10.423    24.630    67.896    12.760     5.305     0.655     0.001     0.001     0.661    32.143     0.175     0.027 .00000E+00 0.000E+00 0.000E+00 0.000E+00 0.000E+00 0.000E+00
BIGSUB  11        0    1.21116E+03    80.700     0.000    94.601    81.202    44.712     2.894     0.020     0.000     2.093     0.004     0.003     0.000     0.000     0.000     0.001     1.969     0.030     0.000 .00000E+00 0.000E+00 0.000E+00 0.000E+00 0.000E+00 0.000E+00
BIGSUB   1        0    2.31032E+03   125.900     0.000    83.392    80.390    46.396    34.386     0.620    49.038    63.162     1.441     0.651     0.080     0.000     0.000     0.057    12.202     0.259     0.049 .00000E+00 0.000E+00 0.000E+00 0.000E+00 0.000E+00 0.000E+00
BIGSUB   2        0    2.24266E+03    99.700     0.000    79.478    77.330    52.308    13.462     0.105     0.250     4.511     0.018     0.067     0.008     0.000     0.000     0.007     4.026     0.075     0.000 .00000E+00 0.000E+00 0.000E+00 0.000E+00 0.000E+00 0.000E+00
BIGSUB   3        0    2.16038E+03    72.100     0.000    65.137    53.251    41.292    13.208     1.109    17.016    24.432     0.739     1.083     0.135     0.001     0.001     0.145     5.620     0.119     0.008 .00000E+00 0.000E+00 0.000E+00 0.000E+00 0.000E+00 0.000E+00
BIGSUB   4        0    2.74275E+03   147.600     0.000    76.510    74.821    51.033    44.177     6.965    30.256    60.366     8.927     4.596     0.566     0.000     0.001     0.586    22.251     0.199     0.018 .00000E+00 0.000E+00 0.000E+00 0.000E+00 0.000E+00 0.000E+00
BIGSUB   5        0    2.24150E+03    99.700     0.000    80.742    78.774    74.759     5.746     0.217     0.015     4.372     0.021     0.117     0.014     0.000     0.000     0.013     4.082     0.078     0.000 .00000E+00 0.000E+00 0.000E+00 0.000E+00 0.000E+00 0.000E+00
BIGSUB   6        0    2.36594E+03   147.600     0.000    76.233    74.920    50.208    61.382     6.711    43.403    61.837    12.408     7.957     0.977     0.001     0.000     0.672    10.463     0.246     0.027 .00000E+00 0.000E+00 0.000E+00 0.000E+00 0.000E+00 0.000E+00
BIGSUB   7        0    2.12040E+03    99.700     0.000    78.279    76.371    44.677    15.859     0.197     0.488     5.206     0.311     0.417     0.051     0.000     0.000     0.036     4.363     0.101     0.000 .00000E+00 0.000E+00 0.000E+00 0.000E+00 0.000E+00 0.000E+00
BIGSUB   8        0    2.40121E+03   125.000     0.000    67.501    67.069    74.139    44.919     1.323    15.741    29.313     0.267     1.091     0.133     0.002     0.001     0.108    11.770     0.834     0.049 .00000E+00 0.000E+00 0.000E+00 0.000E+00 0.000E+00 0.000E+00
BIGSUB   9        0    2.39891E+03    94.300     0.000    75.319    75.241    83.467    13.655     0.449    10.023    18.537     0.003     0.036     0.005     0.006     0.001     0.004     7.714     0.286     0.014 .00000E+00 0.000E+00 0.000E+00 0.000E+00 0.000E+00 0.000E+00
BIGSUB  10        0    2.40511E+03   125.900     0.000    83.381    80.238    48.850    30.116     1.677    41.545    59.684     1.447     0.509     0.063     0.001     0.000     0.073    15.335     0.460     0.124 .00000E+00 0.000E+00 0.000E+00 0.000E+00 0.000E+00 0.000E+00
BIGSUB  11        0    2.21116E+03    99.700     0.000    79.571    77.018    47.742    15.691     0.313     0.366     4.381     0.066     0.067     0.008     0.000     0.000     0.018     3.557     0.068     0.000 .00000E+00 0.000E+00 0.000E+00 0.000E+00 0.000E+00 0.000E+00
BIGSUB   1        0    3.31032E+03   179.600     0.000    91.780    80.414    37.640    69.347    18.803    55.735    96.189    75.411    21.230     2.600     0.099     0.001     1.848    19.827     0.217     0.074 .00000E+00 0.000E+00 0.000E+00 0.000E+00 0.000E+00 0.000E+00
BIGSUB   2        0    3.24266E+03   121.000     0.000    70.865    65.697    48.455    44.755     4.037     9.354    24.013     4.634    11.162     1.367     0.006     0.001     0.960    10.294     0.207     0.004 .00000E+00 0.000E+00 0.000E+00 0.000E+00 0.000E+00 0.000E+00
BIGSUB   3        0    3.16038E+03    87.300     0.000    91.087    57.545    33.450    25.720     2.077    17.706    30.372     0.838     1.022     0.128     0.001     0.001     0.179     9.782     0.206     0.008 .00000E+00 0.000E+00 0.000E+00 0.000E+00 0.000E+00 0.000E+00
BIGSUB   4        0    3.74275E+03   192.400     0.000    79.947    72.287    43.207    65.609    32.781    44.416   108.535    60.300    24.755     3.043     0.001     0.002     2.759    29.969     0.438     0.119 .00000E+00 0.000E+00 0.000E+00 0.000E+00 0.000E+00 0.000E+00
BIGSUB   5        0    3.24150E+03   121.000     0.000    71.845    67.661    71.603    36.689     6.287     3.232    23.181     2.320     6.573     0.805     0.003     0.002     0.622    13.474     0.571     0.003 .00000E+00 0.000E+00 0.000E+00 0.000E+00 0.000E+00 0.000E+00
BIGSUB   6        0    3.36594E+03   192.400     0.000    79.694    72.362    42.113    92.476    29.700    62.531   109.107    90.737    40.842     5.013     0.001     0.001     3.433    14.957     0.641     0.194 .00000E+00 0.000E+00 0.000E+00 0.000E+00 0.000E+00 0.000E+00
BIGSUB   7        0    3.12040E+03   121.000     0.000    69.935    65.492    40.093    46.099     3.733    12.003    26.296     6.871    12.437     1.524     0.016     0.001     1.041    10.185     0.223     0.008 .00000E+00 0.000E+00 0.000E+00 0.000E+00 0.000E+00 0.000E+00
BIGSUB   8        0    3.40121E+03    74.500     0.000    71.996    65.925    61.286    16.575     0.254    27.312    33.890     0.017     0.111     0.014     0.000     0.000     0.012     5.492     0.250     0.059 .00000E+00 0.000E+00 0.000E+00 0.000E+00 0.000E+00 0.000E+00
BIGSUB   9        0    3.39891E+03   123.400     0.000    65.627    64.852    81.330    36.863     6.009    17.151    41.481     0.058     0.471     0.061     0.027     0.006     0.051    17.762     0.182     0.013 .00000E+00 0.000E+00 0.000E+00 0.000E+00 0.000E+00 0.000E+00
BIGSUB  10        0    3.40511E+03   179.600     0.000    91.770    82.542    38.413    58.989    24.637    47.550    97.715    44.410    10.752     1.320     0.258     0.001     1.170    23.950     0.551     0.211 .00000E+00 0.000E+00 0.000E+00 0.000E+00 0.000E+00 0.000E+00
BIGSUB  11        0    3.21116E+03   121.000     0.000    70.937    66.630    42.813    45.869     5.299    11.201    24.923     2.729     5.978     0.733     0.008     0.001     0.615     8.063     0.173     0.007 .00000E+00 0.000E+00 0.000E+00 0.000E+00 0.000E+00 0.000E+00
BIGSUB   1        0    4.31032E+03    19.000     0.000    89.031    34.117    22.292     0.000     0.000    45.545    48.154     0.000     0.000     0.000     0.000     0.000     0.000     0.673     0.007     0.038 .00000E+00 0.000E+00 0.000E+00 0.000E+00 0.000E+00 0.000E+00
BIGSUB   2        0    4.24266E+03    19.000     0.000    77.481    35.480    31.826     0.000     0.000    17.602    18.573     0.000     0.000     0.000     0.000     0.000     0.000     0.425     0.006     0.007 .00000E+00 0.000E+00 0.000E+00 0.000E+00 0.000E+00 0.000E+00
BIGSUB   3        0    4.16038E+03    10.500     0.000   100.599    33.492    10.290     0.000     0.000    14.697    15.769     0.000     0.000     0.000     0.000     0.000     0.000     0.267     0.004     0.004 .00000E+00 0.000E+00 0.000E+00 0.000E+00 0.000E+00 0.000E+00
BIGSUB   4        0    4.74275E+03    35.800     0.000    78.329    44.723    30.418     1.080     1.088    41.614    46.270     0.670     0.069     0.008     0.000     0.000     0.016     1.986     0.020     0.086 .00000E+00 0.000E+00 0.000E+00 0.000E+00 0.000E+00 0.000E+00
BIGSUB   5        0    4.24150E+03    19.000     0.000    78.405    40.902    49.535     0.000     0.000     9.822    10.564     0.000     0.000     0.000     0.000     0.000     0.000     0.367     0.009     0.006 .00000E+00 0.000E+00 0.000E+00 0.000E+00 0.000E+00 0.000E+00
BIGSUB   6        0    4.36594E+03    35.800     0.000    78.138    44.356    29.425     1.887     0.816    58.518    62.916     0.575     0.086     0.011     0.000     0.000     0.008     1.363     0.032     0.140 .00000E+00 0.000E+00 0.000E+00 0.000E+00 0.000E+00 0.000E+00
BIGSUB   7        0    4.12040E+03    19.000     0.000    76.605    40.989    17.947     0.000     0.000    19.830    20.892     0.000     0.000     0.000     0.000     0.000     0.000     0.466     0.015     0.012 .00000E+00 0.000E+00 0.000E+00 0.000E+00 0.000E+00 0.000E+00
BIGSUB   8        0    4.40121E+03    12.400     0.000    84.223    37.208    36.430     0.000     0.000    19.737    20.740     0.000     0.000     0.000     0.000     0.000     0.000     0.143     0.004     0.020 .00000E+00 0.000E+00 0.000E+00 0.000E+00 0.000E+00 0.000E+00
BIGSUB   9        0    4.39891E+03    13.400     0.000    68.275    53.904    40.725     0.000     0.000    18.600    19.607     0.000     0.000     0.000     0.000     0.000     0.000     0.318     0.002     0.006 .00000E+00 0.000E+00 0.000E+00 0.000E+00 0.000E+00 0.000E+00
BIGSUB  10        0    4.40511E+03    19.000     0.000    89.024    37.734    19.256     0.000     0.000    38.900    41.301     0.000     0.000     0.000     0.000     0.000     0.000     0.730     0.018     0.107 .00000E+00 0.000E+00 0.000E+00 0.000E+00 0.000E+00 0.000E+00
BIGSUB  11        0    4.21116E+03    19.000     0.000    77.549    42.812    18.856     0.000     0.000    19.131    20.085     0.000     0.000     0.000     0.000     0.000     0.000     0.371     0.010     0.009 .00000E+00 0.000E+00 0.000E+00 0.000E+00 0.000E+00 0.000E+00
BIGSUB   1        0    5.31032E+03     2.500     0.000   122.040    14.732    10.060     0.000     0.000    24.130    25.883     0.000     0.000     0.000     0.000     0.000     0.000     0.012     0.000     0.008 .00000E+00 0.000E+00 0.000E+00 0.000E+00 0.000E+00 0.000E+00
BIGSUB   2        0    5.24266E+03     2.100     0.000   105.980    14.958    18.968     0.000     0.000    10.817    11.384     0.000     0.000     0.000     0.000     0.000     0.000     0.015     0.000     0.002 .00000E+00 0.000E+00 0.000E+00 0.000E+00 0.000E+00 0.000E+00
BIGSUB   3        0    5.16038E+03     0.600     0.000   106.363     7.815     3.074     0.000     0.000     2.640     3.355     0.000     0.000     0.000     0.000     0.000     0.000     0.008     0.000     0.000 .00000E+00 0.000E+00 0.000E+00 0.000E+00 0.000E+00 0.000E+00
BIGSUB   4        0    5.74275E+03     2.100     0.000   107.311    17.481    15.037     0.000     0.000    22.044    23.560     0.000     0.000     0.000     0.000     0.000     0.000     0.049     0.001     0.019 .00000E+00 0.000E+00 0.000E+00 0.000E+00 0.000E+00 0.000E+00
BIGSUB   5        0    5.24150E+03     2.100     0.000   106.975    18.555    33.079     0.000     0.000     6.553     6.956     0.000     0.000     0.000     0.000     0.000     0.000     0.011     0.001     0.002 .00000E+00 0.000E+00 0.000E+00 0.000E+00 0.000E+00 0.000E+00
BIGSUB   6        0    5.36594E+03     2.100     0.000   107.091    17.655    12.759     0.000     0.000    32.523    34.654     0.000     0.000     0.000     0.000     0.000     0.000     0.069     0.002     0.032 .00000E+00 0.000E+00 0.000E+00 0.000E+00 0.000E+00 0.000E+00
BIGSUB   7        0    5.12040E+03     2.100     0.000   105.037    11.643     8.405     0.000     0.000    11.723    12.333     0.000     0.000     0.000     0.000     0.000     0.000     0.014     0.001     0.003 .00000E+00 0.000E+00 0.000E+00 0.000E+00 0.000E+00 0.000E+00
BIGSUB   8        0    5.40121E+03     0.900     0.000    99.140    20.427    16.903     0.000     0.000     7.548     8.321     0.000     0.000     0.000     0.000     0.000     0.000     0.011     0.000     0.003 .00000E+00 0.000E+00 0.000E+00 0.000E+00 0.000E+00 0.000E+00
BIGSUB   9        0    5.39891E+03     2.100     0.000    85.327    37.612     5.213     0.000     0.000     9.564    10.222     0.000     0.000     0.000     0.000     0.000     0.000     0.010     0.000     0.001 .00000E+00 0.000E+00 0.000E+00 0.000E+00 0.000E+00 0.000E+00
BIGSUB  10        0    5.40511E+03     2.500     0.000   122.034    11.575    10.180     0.000     0.000    19.550    21.077     0.000     0.000     0.000     0.000     0.000     0.000     0.026     0.002     0.023 .00000E+00 0.000E+00 0.000E+00 0.000E+00 0.000E+00 0.000E+00
BIGSUB  11        0    5.21116E+03     2.100     0.000   106.053    11.367     9.590     0.000     0.000    11.404    12.005     0.000     0.000     0.000     0.000     0.000     0.000     0.016     0.000     0.002 .00000E+00 0.000E+00 0.000E+00 0.000E+00 0.000E+00 0.000E+00
BIGSUB   1        0    6.31032E+03     2.000     0.000   126.811     6.171     5.889     0.000     0.000     2.020     3.360     0.000     0.000     0.000     0.000     0.000     0.000     0.001     0.000     0.000 .00000E+00 0.000E+00 0.000E+00 0.000E+00 0.000E+00 0.000E+00
BIGSUB   2        0    6.24266E+03     1.200     0.000   109.417     7.315    12.853     0.000     0.000     0.381     0.826     0.000     0.000     0.000     0.000     0.000     0.000     0.003     0.000     0.000 .00000E+00 0.000E+00 0.000E+00 0.000E+00 0.000E+00 0.000E+00
BIGSUB   3        0    6.16038E+03     0.700     0.000   107.073     1.091     2.684     0.000     0.000     0.087     0.628     0.000     0.000     0.000     0.000     0.000     0.000     0.002     0.000     0.000 .00000E+00 0.000E+00 0.000E+00 0.000E+00 0.000E+00 0.000E+00
BIGSUB   4        0    6.74275E+03     0.900     0.000   113.737     5.851    10.086     0.000     0.000     2.755     3.904     0.000     0.000     0.000     0.000     0.000     0.000     0.007     0.000     0.001 .00000E+00 0.000E+00 0.000E+00 0.000E+00 0.000E+00 0.000E+00
BIGSUB   5        0    6.24150E+03     1.200     0.000   109.796     7.327    26.953     0.000     0.000     0.183     0.502     0.000     0.000     0.000     0.000     0.000     0.000     0.001     0.000     0.000 .00000E+00 0.000E+00 0.000E+00 0.000E+00 0.000E+00 0.000E+00
BIGSUB   6        0    6.36594E+03     0.900     0.000   113.680     7.086     6.132     0.000     0.000     4.141     5.757     0.000     0.000     0.000     0.000     0.000     0.000     0.010     0.000     0.002 .00000E+00 0.000E+00 0.000E+00 0.000E+00 0.000E+00 0.000E+00
BIGSUB   7        0    6.12040E+03     1.200     0.000   109.057     4.883     4.722     0.000     0.000     0.372     0.850     0.000     0.000     0.000     0.000     0.000     0.000     0.002     0.000     0.000 .00000E+00 0.000E+00 0.000E+00 0.000E+00 0.000E+00 0.000E+00
BIGSUB   8        0    6.40121E+03     0.200     0.000   106.842     9.028     8.075     0.000     0.000     0.132     0.718     0.000     0.000     0.000     0.000     0.000     0.000     0.003     0.000     0.000 .00000E+00 0.000E+00 0.000E+00 0.000E+00 0.000E+00 0.000E+00
BIGSUB   9        0    6.39891E+03     1.300     0.000    94.873     3.604     2.909     0.000     0.000     0.361     0.870     0.000     0.000     0.000     0.000     0.000     0.000     0.001     0.000     0.000 .00000E+00 0.000E+00 0.000E+00 0.000E+00 0.000E+00 0.000E+00
BIGSUB  10        0    6.40511E+03     2.000     0.000   126.811     4.193     7.987     0.000     0.000     2.234     3.394     0.000     0.000     0.000     0.000     0.000     0.000     0.006     0.001     0.002 .00000E+00 0.000E+00 0.000E+00 0.000E+00 0.000E+00 0.000E+00
BIGSUB  11        0    6.21116E+03     1.200     0.000   109.445     4.310     6.480     0.000     0.000     0.512     0.983     0.000     0.000     0.000     0.000     0.000     0.000     0.003     0.000     0.000 .00000E+00 0.000E+00 0.000E+00 0.000E+00 0.000E+00 0.000E+00
BIGSUB   1        0    7.31032E+03     4.200     0.000   130.024     5.310     4.701     0.000     0.000     0.142     1.247     0.000     0.000     0.000     0.000     0.000     0.000     0.048     0.002     0.000 .00000E+00 0.000E+00 0.000E+00 0.000E+00 0.000E+00 0.000E+00
BIGSUB   2        0    7.24266E+03     2.500     0.000   112.776     6.238     9.099     0.000     0.000     0.001     0.368     0.000     0.000     0.000     0.000     0.000     0.000     0.011     0.001     0.000 .00000E+00 0.000E+00 0.000E+00 0.000E+00 0.000E+00 0.000E+00
BIGSUB   3        0    7.16038E+03     0.300     0.000   115.150     0.452     2.531     0.000     0.000     0.000     0.425     0.000     0.000     0.000     0.000     0.000     0.000     0.001     0.000     0.000 .00000E+00 0.000E+00 0.000E+00 0.000E+00 0.000E+00 0.000E+00
BIGSUB   4        0    7.74275E+03     1.400     0.000   124.842     3.545     7.938     0.000     0.000     0.187     1.099     0.000     0.000     0.000     0.000     0.000     0.000     0.005     0.001     0.000 .00000E+00 0.000E+00 0.000E+00 0.000E+00 0.000E+00 0.000E+00
BIGSUB   5        0    7.24150E+03     2.500     0.000   113.399     6.850    22.583     0.000     0.000     0.000     0.271     0.000     0.000     0.000     0.000     0.000     0.000     0.014     0.001     0.000 .00000E+00 0.000E+00 0.000E+00 0.000E+00 0.000E+00 0.000E+00
BIGSUB   6        0    7.36594E+03     1.400     0.000   124.758     3.771     3.591     0.000     0.000     0.304     1.583     0.000     0.000     0.000     0.000     0.000     0.000     0.003     0.000     0.000 .00000E+00 0.000E+00 0.000E+00 0.000E+00 0.000E+00 0.000E+00
BIGSUB   7        0    7.12040E+03     2.500     0.000   112.186     4.702     2.503     0.000     0.000     0.002     0.395     0.000     0.000     0.000     0.000     0.000     0.000     0.011     0.001     0.000 .00000E+00 0.000E+00 0.000E+00 0.000E+00 0.000E+00 0.000E+00
BIGSUB   8        0    7.40121E+03     3.700     0.000   105.046     5.059     6.688     0.000     0.000     0.000     0.480     0.000     0.000     0.000     0.000     0.000     0.000     0.020     0.004     0.000 .00000E+00 0.000E+00 0.000E+00 0.000E+00 0.000E+00 0.000E+00
BIGSUB   9        0    7.39891E+03     3.900     0.000    98.006     3.547     3.199     0.000     0.000     0.020     0.473     0.000     0.000     0.000     0.000     0.000     0.000     0.048     0.001     0.000 .00000E+00 0.000E+00 0.000E+00 0.000E+00 0.000E+00 0.000E+00
BIGSUB  10        0    7.40511E+03     4.200     0.000   130.022     4.410     7.633     0.000     0.000     0.121     1.159     0.000     0.000     0.000     0.000     0.000     0.000     0.127     0.004     0.000 .00000E+00 0.000E+00 0.000E+00 0.000E+00 0.000E+00 0.000E+00
BIGSUB  11        0    7.21116E+03     2.500     0.000   112.822     4.501     4.462     0.000     0.000     0.002     0.392     0.000     0.000     0.000     0.000     0.000     0.000     0.014     0.001     0.000 .00000E+00 0.000E+00 0.000E+00 0.000E+00 0.000E+00 0.000E+00
BIGSUB   1        0    8.31032E+03     2.300     0.000   144.635     5.064     1.937     0.000     0.000     0.000     0.821     0.000     0.000     0.000     0.000     0.000     0.000     0.031     0.001     0.000 .00000E+00 0.000E+00 0.000E+00 0.000E+00 0.000E+00 0.000E+00
BIGSUB   2        0    8.24266E+03     1.900     0.000   128.572     4.036     6.963     0.000     0.000     0.000     0.275     0.000     0.000     0.000     0.000     0.000     0.000     0.007     0.000     0.000 .00000E+00 0.000E+00 0.000E+00 0.000E+00 0.000E+00 0.000E+00
BIGSUB   3        0    8.16038E+03     1.500     0.000   130.774     1.483     2.548     0.000     0.000     0.000     0.316     0.000     0.000     0.000     0.000     0.000     0.000     0.000     0.000     0.000 .00000E+00 0.000E+00 0.000E+00 0.000E+00 0.000E+00 0.000E+00
BIGSUB   4        0    8.74275E+03     2.500     0.000   137.451     3.685     6.753     0.000     0.000     0.000     0.680     0.000     0.000     0.000     0.000     0.000     0.000     0.001     0.000     0.000 .00000E+00 0.000E+00 0.000E+00 0.000E+00 0.000E+00 0.000E+00
BIGSUB   5        0    8.24150E+03     1.900     0.000   129.233     5.551    18.932     0.000     0.000     0.000     0.199     0.000     0.000     0.000     0.000     0.000     0.000     0.005     0.000     0.000 .00000E+00 0.000E+00 0.000E+00 0.000E+00 0.000E+00 0.000E+00
BIGSUB   6        0    8.36594E+03     2.500     0.000   137.354     3.768     2.233     0.000     0.000     0.000     0.956     0.000     0.000     0.000     0.000     0.000     0.000     0.001     0.000     0.000 .00000E+00 0.000E+00 0.000E+00 0.000E+00 0.000E+00 0.000E+00
BIGSUB   7        0    8.12040E+03     1.900     0.000   127.944     2.899     1.504     0.000     0.000     0.000     0.295     0.000     0.000     0.000     0.000     0.000     0.000     0.007     0.001     0.000 .00000E+00 0.000E+00 0.000E+00 0.000E+00 0.000E+00 0.000E+00
BIGSUB   8        0    8.40121E+03     1.300     0.000   125.677     4.829     3.158     0.000     0.000     0.000     0.351     0.000     0.000     0.000     0.000     0.000     0.000     0.008     0.003     0.000 .00000E+00 0.000E+00 0.000E+00 0.000E+00 0.000E+00 0.000E+00
BIGSUB   9        0    8.39891E+03     2.100     0.000   109.169     4.780     0.519     0.000     0.000     0.000     0.318     0.000     0.000     0.000     0.000     0.000     0.000     0.015     0.000     0.000 .00000E+00 0.000E+00 0.000E+00 0.000E+00 0.000E+00 0.000E+00
BIGSUB  10        0    8.40511E+03     2.300     0.000   144.632     4.756     5.177     0.000     0.000     0.000     0.700     0.000     0.000     0.000     0.000     0.000     0.000     0.020     0.001     0.000 .00000E+00 0.000E+00 0.000E+00 0.000E+00 0.000E+00 0.000E+00
BIGSUB  11        0    8.21116E+03     1.900     0.000   128.620     3.073     3.289     0.000     0.000     0.000     0.288     0.000     0.000     0.000     0.000     0.000     0.000     0.005     0.000     0.000 .00000E+00 0.000E+00 0.000E+00 0.000E+00 0.000E+00 0.000E+00
BIGSUB   1        0    9.31032E+03    10.600     0.000   132.412     9.863     2.576     0.000     0.000     0.000     0.649     0.000     0.000     0.000     0.000     0.000     0.000     0.081     0.005     0.000 .00000E+00 0.000E+00 0.000E+00 0.000E+00 0.000E+00 0.000E+00
BIGSUB   2        0    9.24266E+03     7.400     0.000   119.715     7.961     6.377     0.000     0.000     0.000     0.213     0.000     0.000     0.000     0.000     0.000     0.000     0.020     0.002     0.000 .00000E+00 0.000E+00 0.000E+00 0.000E+00 0.000E+00 0.000E+00
BIGSUB   3        0    9.16038E+03     7.900     0.000   120.988     5.741     4.607     0.000     0.000     0.000     0.284     0.000     0.000     0.000     0.000     0.000     0.000     0.057     0.024     0.000 .00000E+00 0.000E+00 0.000E+00 0.000E+00 0.000E+00 0.000E+00
BIGSUB   4        0    9.74275E+03    27.600     0.000   125.161    14.781    18.383     0.000     0.000     0.000     1.463     0.000     0.000     0.000     0.000     0.000     0.000     0.973     0.051     0.000 .00000E+00 0.000E+00 0.000E+00 0.000E+00 0.000E+00 0.000E+00
BIGSUB   5        0    9.24150E+03     7.400     0.000   120.551     9.201    17.104     0.000     0.000     0.000     0.165     0.000     0.000     0.000     0.000     0.000     0.000     0.024     0.002     0.000 .00000E+00 0.000E+00 0.000E+00 0.000E+00 0.000E+00 0.000E+00
BIGSUB   6        0    9.36594E+03    27.600     0.000   125.004    14.810    15.515     0.000     0.025     0.000     0.971     0.012     0.001     0.000     0.000     0.000     0.000     0.258     0.018     0.000 .00000E+00 0.000E+00 0.000E+00 0.000E+00 0.000E+00 0.000E+00
BIGSUB   7        0    9.12040E+03     7.400     0.000   118.923     7.123     1.755     0.000     0.000     0.000     0.229     0.000     0.000     0.000     0.000     0.000     0.000     0.020     0.002     0.000 .00000E+00 0.000E+00 0.000E+00 0.000E+00 0.000E+00 0.000E+00
BIGSUB   8        0    9.40121E+03     8.100     0.000   114.202     7.655     3.571     0.000     0.000     0.000     0.272     0.000     0.000     0.000     0.000     0.000     0.000     0.025     0.006     0.000 .00000E+00 0.000E+00 0.000E+00 0.000E+00 0.000E+00 0.000E+00
BIGSUB   9        0    9.39891E+03     6.600     0.000    96.583     5.989     1.110     0.000     0.000     0.000     0.236     0.000     0.000     0.000     0.000     0.000     0.000     0.017     0.001     0.000 .00000E+00 0.000E+00 0.000E+00 0.000E+00 0.000E+00 0.000E+00
BIGSUB  10        0    9.40511E+03    10.600     0.000   132.406     9.612     5.975     0.000     0.000     0.000     0.670     0.000     0.000     0.000     0.000     0.000     0.000     0.180     0.009     0.000 .00000E+00 0.000E+00 0.000E+00 0.000E+00 0.000E+00 0.000E+00
BIGSUB  11        0    9.21116E+03     7.400     0.000   119.777     7.086     3.578     0.000     0.000     0.000     0.227     0.000     0.000     0.000     0.000     0.000     0.000     0.022     0.002     0.000 .00000E+00 0.000E+00 0.000E+00 0.000E+00 0.000E+00 0.000E+00
BIGSUB   1        0   10.31032E+03    37.300     0.000    94.998    31.845     7.624     0.000     0.000     0.000     0.821     0.000     0.000     0.000     0.000     0.000     0.000     0.386     0.005     0.000 .00000E+00 0.000E+00 0.000E+00 0.000E+00 0.000E+00 0.000E+00
BIGSUB   2        0   10.24266E+03    37.200     0.000    88.326    32.109    11.189     0.000     0.000     0.000     0.406     0.000     0.000     0.000     0.000     0.000     0.000     0.257     0.006     0.000 .00000E+00 0.000E+00 0.000E+00 0.000E+00 0.000E+00 0.000E+00
BIGSUB   3        0   10.16038E+03    92.800     0.000    74.197    45.525    46.732     0.662     0.190     0.000     4.129     0.049     0.021     0.003     0.001     0.000     0.008     3.766     0.161     0.000 .00000E+00 0.000E+00 0.000E+00 0.000E+00 0.000E+00 0.000E+00
BIGSUB   4        0   10.74275E+03   121.100     0.000    93.162    65.510    50.123    11.322     2.306     0.000    11.429     1.959     0.253     0.032     0.012     0.001     0.048     8.746     0.191     0.000 .00000E+00 0.000E+00 0.000E+00 0.000E+00 0.000E+00 0.000E+00
BIGSUB   5        0   10.24150E+03    37.200     0.000    89.491    32.695    21.298     0.000     0.000     0.000     0.404     0.000     0.000     0.000     0.000     0.000     0.000     0.296     0.006     0.000 .00000E+00 0.000E+00 0.000E+00 0.000E+00 0.000E+00 0.000E+00
BIGSUB   6        0   10.36594E+03   121.100     0.000    92.888    65.622    50.011    18.030     2.404     0.000     5.861     2.363     0.339     0.042     0.006     0.000     0.031     2.927     0.131     0.000 .00000E+00 0.000E+00 0.000E+00 0.000E+00 0.000E+00 0.000E+00
BIGSUB   7        0   10.12040E+03    37.200     0.000    87.220    31.535     7.124     0.000     0.000     0.000     0.431     0.000     0.000     0.000     0.000     0.000     0.000     0.271     0.009     0.000 .00000E+00 0.000E+00 0.000E+00 0.000E+00 0.000E+00 0.000E+00
BIGSUB   8        0   10.40121E+03    24.100     0.000    90.832    22.953     4.563     0.000     0.000     0.000     0.348     0.000     0.000     0.000     0.000     0.000     0.000     0.160     0.012     0.000 .00000E+00 0.000E+00 0.000E+00 0.000E+00 0.000E+00 0.000E+00
BIGSUB   9        0   10.39891E+03    45.200     0.000    73.610    37.231     8.426     0.000     0.000     0.000     0.788     0.000     0.000     0.000     0.000     0.000     0.000     0.621     0.004     0.000 .00000E+00 0.000E+00 0.000E+00 0.000E+00 0.000E+00 0.000E+00
BIGSUB  10        0   10.40511E+03    37.300     0.000    94.987    31.019    11.447     0.000     0.000     0.000     1.169     0.000     0.000     0.000     0.000     0.000     0.000     0.795     0.008     0.000 .00000E+00 0.000E+00 0.000E+00 0.000E+00 0.000E+00 0.000E+00
BIGSUB  11        0   10.21116E+03    37.200     0.000    88.411    31.023     9.483     0.000     0.000     0.000     0.413     0.000     0.000     0.000     0.000     0.000     0.000     0.256     0.006     0.000 .00000E+00 0.000E+00 0.000E+00 0.000E+00 0.000E+00 0.000E+00
BIGSUB   1        0   11.31032E+03    10.500     0.000   140.448    16.395     1.659     0.000     0.000     0.000     0.392     0.000     0.000     0.000     0.000     0.000     0.000     0.081     0.002     0.000 .00000E+00 0.000E+00 0.000E+00 0.000E+00 0.000E+00 0.000E+00
BIGSUB   2        0   11.24266E+03     9.700     0.000   130.548    16.112     4.740     0.000     0.000     0.000     0.155     0.000     0.000     0.000     0.000     0.000     0.000     0.049     0.002     0.000 .00000E+00 0.000E+00 0.000E+00 0.000E+00 0.000E+00 0.000E+00
BIGSUB   3        0   11.16038E+03    95.700     0.000    77.388    59.934    46.118    17.703    11.929     0.000    18.476     5.482    11.023     1.370     0.022     0.007     1.122     6.410     0.335     0.000 .00000E+00 0.000E+00 0.000E+00 0.000E+00 0.000E+00 0.000E+00
BIGSUB   4        0   11.74275E+03    11.500     0.000   168.924    35.904    25.289     0.012     0.006     0.760     3.153     0.000     0.000     0.000     0.000     0.000     0.000     2.054     0.085     0.001 .00000E+00 0.000E+00 0.000E+00 0.000E+00 0.000E+00 0.000E+00
BIGSUB   5        0   11.24150E+03     9.700     0.000   131.751    17.467    13.489     0.000     0.000     0.000     0.126     0.000     0.000     0.000     0.000     0.000     0.000     0.049     0.002     0.000 .00000E+00 0.000E+00 0.000E+00 0.000E+00 0.000E+00 0.000E+00
BIGSUB   6        0   11.36594E+03    11.500     0.000   168.660    37.239    22.275     0.000     0.026     1.300     3.584     0.014     0.001     0.000     0.000     0.000     0.000     1.778     0.118     0.002 .00000E+00 0.000E+00 0.000E+00 0.000E+00 0.000E+00 0.000E+00
BIGSUB   7        0   11.12040E+03     9.700     0.000   129.403    15.397     1.388     0.000     0.000     0.000     0.167     0.000     0.000     0.000     0.000     0.000     0.000     0.053     0.002     0.000 .00000E+00 0.000E+00 0.000E+00 0.000E+00 0.000E+00 0.000E+00
BIGSUB   8        0   11.40121E+03     3.400     0.000   175.665     7.025     0.924     0.000     0.000     0.000     0.146     0.000     0.000     0.000     0.000     0.000     0.000     0.012     0.003     0.000 .00000E+00 0.000E+00 0.000E+00 0.000E+00 0.000E+00 0.000E+00
BIGSUB   9        0   11.39891E+03    17.500     0.000   104.713    19.912     5.840     0.000     0.000     0.000     0.274     0.000     0.000     0.000     0.000     0.000     0.000     0.155     0.001     0.000 .00000E+00 0.000E+00 0.000E+00 0.000E+00 0.000E+00 0.000E+00
BIGSUB  10        0   11.40511E+03    10.500     0.000   140.438    16.187     5.619     0.000     0.000     0.000     0.414     0.000     0.000     0.000     0.000     0.000     0.000     0.146     0.005     0.000 .00000E+00 0.000E+00 0.000E+00 0.000E+00 0.000E+00 0.000E+00
BIGSUB  11        0   11.21116E+03     9.700     0.000   130.636    15.553     3.595     0.000     0.000     0.000     0.157     0.000     0.000     0.000     0.000     0.000     0.000     0.045     0.002     0.000 .00000E+00 0.000E+00 0.000E+00 0.000E+00 0.000E+00 0.000E+00
BIGSUB   1        0   12.31032E+03   186.400     0.000   118.439    75.578    45.283    49.371     1.209     0.100    15.504     3.020     0.851     0.105     0.000     0.000     0.076    13.913     0.178     0.000 .00000E+00 0.000E+00 0.000E+00 0.000E+00 0.000E+00 0.000E+00
BIGSUB   2        0   12.24266E+03   102.600     0.000    92.556    58.394    46.744     0.000     0.000     0.000     1.976     0.000     0.000     0.000     0.000     0.000     0.000     1.895     0.015     0.000 .00000E+00 0.000E+00 0.000E+00 0.000E+00 0.000E+00 0.000E+00
BIGSUB   3        0   12.16038E+03   110.600     0.000    88.075    72.616    41.397    28.886     2.805     6.013    20.760     0.865     1.144     0.147     0.010     0.002     0.176    11.661     0.422     0.016 .00000E+00 0.000E+00 0.000E+00 0.000E+00 0.000E+00 0.000E+00
BIGSUB   4        0   12.74275E+03   130.100     0.000    98.171    65.778    49.285    23.664     2.672     3.494    19.962     1.635     0.229     0.031     0.007     0.001     0.052    13.462     0.299     0.006 .00000E+00 0.000E+00 0.000E+00 0.000E+00 0.000E+00 0.000E+00
BIGSUB   5        0   12.24150E+03   102.600     0.000    93.643    58.797    54.880     0.000     0.000     0.000     2.229     0.000     0.000     0.000     0.000     0.000     0.000     2.171     0.017     0.000 .00000E+00 0.000E+00 0.000E+00 0.000E+00 0.000E+00 0.000E+00
BIGSUB   6        0   12.36594E+03   130.100     0.000    97.880    66.509    48.375    33.158     2.553     5.964    14.557     1.942     0.263     0.033     0.002     0.000     0.027     5.553     0.273     0.009 .00000E+00 0.000E+00 0.000E+00 0.000E+00 0.000E+00 0.000E+00
BIGSUB   7        0   12.12040E+03   102.600     0.000    91.524    57.659    43.889     0.064     0.029     0.000     2.116     0.035     0.034     0.004     0.000     0.000     0.003     2.000     0.024     0.000 .00000E+00 0.000E+00 0.000E+00 0.000E+00 0.000E+00 0.000E+00
BIGSUB   8        0   12.40121E+03   184.700     0.000    98.034    57.384    72.751    40.886     2.166     0.122    12.089     0.162     0.893     0.110     0.001     0.001     0.085     9.675     0.408     0.000 .00000E+00 0.000E+00 0.000E+00 0.000E+00 0.000E+00 0.000E+00
BIGSUB   9        0   12.39891E+03   159.900     0.000   100.433    73.552    76.698     6.157     0.283     0.001     8.230     0.009     0.056     0.007     0.000     0.000     0.005     7.851     0.058     0.000 .00000E+00 0.000E+00 0.000E+00 0.000E+00 0.000E+00 0.000E+00
BIGSUB  10        0   12.40511E+03   186.400     0.000   118.429    74.981    48.067    42.537     4.434     0.176    25.010     3.833     0.941     0.118     0.001     0.000     0.137    20.157     0.187     0.000 .00000E+00 0.000E+00 0.000E+00 0.000E+00 0.000E+00 0.000E+00
BIGSUB  11        0   12.21116E+03   102.600     0.000    92.636    58.473    45.356     0.160     0.020     0.000     2.042     0.004     0.003     0.000     0.000     0.000     0.001     1.936     0.019     0.000 .00000E+00 0.000E+00 0.000E+00 0.000E+00 0.000E+00 0.000E+00
BIGSUB   1        0 2077.31032E+03   785.900     0.000  1373.221   450.705    45.283   237.809    26.118   206.253   317.966    95.063    29.862     3.659     0.100     0.001     2.598    73.197     0.791     0.187 .00000E+00 0.000E+00 0.000E+00 0.000E+00 0.000E+00 0.000E+00
BIGSUB   2        0 2077.24266E+03   485.000     0.000  1210.204   407.324    46.744    60.650     4.143    38.406    64.998     4.651    11.229     1.375     0.006     0.001     0.967    19.198     0.344     0.013 .00000E+00 0.000E+00 0.000E+00 0.000E+00 0.000E+00 0.000E+00
BIGSUB   3        0 2077.16038E+03   551.500     0.000  1154.368   404.405    41.397    94.503    18.434    79.502   146.331     8.064    14.395     1.796     0.035     0.011     1.650    42.621     1.365     0.052 .00000E+00 0.000E+00 0.000E+00 0.000E+00 0.000E+00 0.000E+00
BIGSUB   4        0 2077.74275E+03   823.900     0.000  1287.366   483.052    49.285   191.673    48.976   162.582   324.534    76.243    30.883     3.802     0.021     0.005     3.658   102.767     1.416     0.257 .00000E+00 0.000E+00 0.000E+00 0.000E+00 0.000E+00 0.000E+00
BIGSUB   5        0 2077.24150E+03   485.000     0.000  1221.793   425.940    54.880    43.191     6.505    19.804    50.923     2.341     6.690     0.819     0.003     0.002     0.634    22.395     0.702     0.011 .00000E+00 0.000E+00 0.000E+00 0.000E+00 0.000E+00 0.000E+00
BIGSUB   6        0 2077.36594E+03   823.900     0.000  1284.874   487.067    48.375   270.047    45.685   234.563   342.398   111.663    51.852     6.366     0.011     0.002     4.372    47.753     1.529     0.417 .00000E+00 0.000E+00 0.000E+00 0.000E+00 0.000E+00 0.000E+00
BIGSUB   7        0 2077.12040E+03   485.000     0.000  1199.212   399.585    43.889    65.302     4.000    44.417    71.888     7.286    12.964     1.589     0.016     0.001     1.087    19.915     0.430     0.023 .00000E+00 0.000E+00 0.000E+00 0.000E+00 0.000E+00 0.000E+00
BIGSUB   8        0 2077.40121E+03   544.100     0.000  1214.295   373.231    72.751   128.056     3.973    75.756   119.881     0.451     2.157     0.263     0.005     0.002     0.212    34.868     2.303     0.153 .00000E+00 0.000E+00 0.000E+00 0.000E+00 0.000E+00 0.000E+00
BIGSUB   9        0 2077.39891E+03   580.700     0.000  1059.323   458.158    76.698    76.936     7.512    60.806   119.576     0.076     0.633     0.083     0.059     0.008     0.068    46.981     0.840     0.042 .00000E+00 0.000E+00 0.000E+00 0.000E+00 0.000E+00 0.000E+00
BIGSUB  10        0 2077.40511E+03   785.900     0.000  1373.132   447.648    48.067   205.196    41.171   174.705   320.189    62.451    17.507     2.156     0.261     0.002     2.041    93.615     1.422     0.494 .00000E+00 0.000E+00 0.000E+00 0.000E+00 0.000E+00 0.000E+00
BIGSUB  11        0 2077.21116E+03   485.000     0.000  1211.058   403.048    45.356    64.615     5.652    42.616    67.988     2.803     6.051     0.742     0.008     0.001     0.635    16.256     0.310     0.018 .00000E+00 0.000E+00 0.000E+00 0.000E+00 0.000E+00 0.000E+00
BIGSUB   1        0    1.31032E+03   373.000     0.000   109.141   101.272    45.948   169.476    54.228    29.472   127.696   211.148    66.629     8.175     1.011     0.003     5.770    43.224     0.298     0.023 .00000E+00 0.000E+00 0.000E+00 0.000E+00 0.000E+00 0.000E+00
BIGSUB   2        0    1.24266E+03   127.500     0.000   102.796    92.814    52.451    21.787     0.964     0.000     6.423     1.199     2.871     0.352     0.000     0.000     0.246     5.389     0.098     0.000 .00000E+00 0.000E+00 0.000E+00 0.000E+00 0.000E+00 0.000E+00
BIGSUB   3        0    1.16038E+03    97.700     0.000    87.375    66.685    47.234    15.606     2.618    14.785    24.552     1.753     2.663     0.327     0.008     0.001     0.333     6.672     0.171     0.024 .00000E+00 0.000E+00 0.000E+00 0.000E+00 0.000E+00 0.000E+00
BIGSUB   4        0    1.74275E+03   220.600     0.000    97.494    91.050    50.491    72.841    21.314    14.459    68.809    27.774    13.213     1.671     0.012     0.007     1.912    32.538     0.508     0.028 .00000E+00 0.000E+00 0.000E+00 0.000E+00 0.000E+00 0.000E+00
BIGSUB   5        0    1.24150E+03   127.500     0.000   104.164    92.130    74.996     8.023     1.369     0.000     6.737     0.591     1.771     0.217     0.000     0.001     0.168     5.321     0.090     0.000 .00000E+00 0.000E+00 0.000E+00 0.000E+00 0.000E+00 0.000E+00
BIGSUB   6        0    1.36594E+03   220.600     0.000    97.188    91.615    49.614   101.908    18.622    22.583    56.009    39.661    22.850     2.849     0.006     0.003     2.204    14.088     0.244     0.045 .00000E+00 0.000E+00 0.000E+00 0.000E+00 0.000E+00 0.000E+00
BIGSUB   7        0    1.12040E+03   127.500     0.000   101.499    92.544    44.674    26.170     1.184     0.000     7.126     2.509     4.388     0.538     0.001     0.000     0.363     5.863     0.151     0.000 .00000E+00 0.000E+00 0.000E+00 0.000E+00 0.000E+00 0.000E+00
BIGSUB   8        0    1.40121E+03   156.900     0.000    84.987    81.878    73.213    56.756     2.944    13.983    33.226     0.140     1.368     0.167     0.005     0.001     0.140    15.864     0.386     0.044 .00000E+00 0.000E+00 0.000E+00 0.000E+00 0.000E+00 0.000E+00
BIGSUB   9        0    1.39891E+03   170.800     0.000    94.898    86.527    85.638    44.216     8.332     2.486    32.994     0.139     1.121     0.146     0.140     0.015     0.107    22.023     0.799     0.003 .00000E+00 0.000E+00 0.000E+00 0.000E+00 0.000E+00 0.000E+00
BIGSUB  10        0    1.40511E+03   373.000     0.000   109.129   100.922    48.779   145.157    69.270    24.614   149.195   135.169    53.258     6.587     2.898     0.005     5.436    54.646     0.498     0.047 .00000E+00 0.000E+00 0.000E+00 0.000E+00 0.000E+00 0.000E+00
BIGSUB  11        0    1.21116E+03   127.500     0.000   102.896    92.788    47.905    24.696     1.971     0.000     6.989     0.992     1.917     0.236     0.002     0.000     0.235     4.942     0.093     0.000 .00000E+00 0.000E+00 0.000E+00 0.000E+00 0.000E+00 0.000E+00
BIGSUB   1        0    2.31032E+03    74.300     0.000    82.472    68.750    45.901     3.358     0.001    69.661    79.499     0.000     0.000     0.000     0.000     0.000     0.000     8.205     0.113     0.095 .00000E+00 0.000E+00 0.000E+00 0.000E+00 0.000E+00 0.000E+00
BIGSUB   2        0    2.24266E+03    63.500     0.000    78.619    64.630    50.508     0.000     0.021     0.657     2.567     0.001     0.005     0.001     0.000     0.000     0.001     1.718     0.023     0.000 .00000E+00 0.000E+00 0.000E+00 0.000E+00 0.000E+00 0.000E+00
BIGSUB   3        0    2.16038E+03    60.800     0.000    64.821    42.892    48.621    10.897     0.903    13.300    18.788     0.347     0.413     0.052     0.001     0.000     0.074     4.075     0.101     0.014 .00000E+00 0.000E+00 0.000E+00 0.000E+00 0.000E+00 0.000E+00
BIGSUB   4        0    2.74275E+03   120.600     0.000    75.441    72.653    50.201    30.355     1.990    31.799    51.319     1.336     0.278     0.036     0.005     0.000     0.071    16.670     0.179     0.049 .00000E+00 0.000E+00 0.000E+00 0.000E+00 0.000E+00 0.000E+00
BIGSUB   5        0    2.24150E+03    63.500     0.000    79.863    66.729    70.841     0.000     0.047     0.124     1.728     0.002     0.016     0.002     0.000     0.000     0.002     1.480     0.019     0.000 .00000E+00 0.000E+00 0.000E+00 0.000E+00 0.000E+00 0.000E+00
BIGSUB   6        0    2.36594E+03   120.600     0.000    75.168    72.754    49.428    42.100     2.239    47.459    59.329     1.801     0.462     0.057     0.009     0.000     0.044     8.414     0.058     0.069 .00000E+00 0.000E+00 0.000E+00 0.000E+00 0.000E+00 0.000E+00
BIGSUB   7        0    2.12040E+03    63.500     0.000    77.439    63.957    43.351     0.000     0.024     0.867     2.992     0.031     0.029     0.004     0.000     0.000     0.003     1.900     0.038     0.001 .00000E+00 0.000E+00 0.000E+00 0.000E+00 0.000E+00 0.000E+00
BIGSUB   8        0    2.40121E+03    87.600     0.000    66.775    65.141    73.873    16.734     0.193    29.013    35.682     0.010     0.093     0.011     0.000     0.000     0.010     5.693     0.082     0.050 .00000E+00 0.000E+00 0.000E+00 0.000E+00 0.000E+00 0.000E+00
BIGSUB   9        0    2.39891E+03    60.600     0.000    74.576    68.216    76.982     0.000     0.036    11.611    14.848     0.000     0.002     0.000     0.000     0.000     0.000     2.825     0.109     0.016 .00000E+00 0.000E+00 0.000E+00 0.000E+00 0.000E+00 0.000E+00
BIGSUB  10        0    2.40511E+03    74.300     0.000    82.461    68.148    48.536     2.774     0.318    58.250    66.754     0.198     0.006     0.001     0.000     0.000     0.002     6.785     0.213     0.263 .00000E+00 0.000E+00 0.000E+00 0.000E+00 0.000E+00 0.000E+00
BIGSUB  11        0    2.21116E+03    63.500     0.000    78.710    63.777    46.815     0.000     0.054     0.923     2.565     0.007     0.005     0.001     0.000     0.000     0.002     1.396     0.020     0.001 .00000E+00 0.000E+00 0.000E+00 0.000E+00 0.000E+00 0.000E+00
BIGSUB   1        0    3.31032E+03   286.300     0.000   101.330    88.324    41.091   117.469    52.222    71.470   157.550   123.528     5.998     0.735     0.001     0.001     0.563    31.583     0.327     0.088 .00000E+00 0.000E+00 0.000E+00 0.000E+00 0.000E+00 0.000E+00
BIGSUB   2        0    3.24266E+03   172.200     0.000    79.471    72.464    50.503    72.198    11.047    11.131    37.988     8.706    30.862     3.779     0.008     0.003     2.656    15.445     0.371     0.007 .00000E+00 0.000E+00 0.000E+00 0.000E+00 0.000E+00 0.000E+00
BIGSUB   3        0    3.16038E+03    61.200     0.000    90.434    63.929    34.885     7.120     0.266    14.124    19.776     0.108     0.058     0.008     0.001     0.000     0.021     4.770     0.109     0.011 .00000E+00 0.000E+00 0.000E+00 0.000E+00 0.000E+00 0.000E+00
BIGSUB   4        0    3.74275E+03   224.400     0.000    95.807    79.184    41.643    76.488    43.612    47.489   126.865    62.575    21.814     2.760     0.006     0.007     2.931    34.374     0.542     0.125 .00000E+00 0.000E+00 0.000E+00 0.000E+00 0.000E+00 0.000E+00
BIGSUB   5        0    3.24150E+03   172.200     0.000    80.425    74.646    73.974    57.310    16.011     4.087    40.572     3.975    17.752     2.173     0.005     0.006     1.679    20.277     0.760     0.005 .00000E+00 0.000E+00 0.000E+00 0.000E+00 0.000E+00 0.000E+00
BIGSUB   6        0    3.36594E+03   224.400     0.000    95.579    79.084    40.407   108.800    38.664    68.191   126.508    94.094    33.754     4.227     0.008     0.003     3.421    17.695     0.599     0.180 .00000E+00 0.000E+00 0.000E+00 0.000E+00 0.000E+00 0.000E+00
BIGSUB   7        0    3.12040E+03   172.200     0.000    78.567    72.757    41.824    74.377    10.225    13.445    39.317    11.269    31.058     3.806     0.049     0.001     2.590    15.233     0.650     0.022 .00000E+00 0.000E+00 0.000E+00 0.000E+00 0.000E+00 0.000E+00
BIGSUB   8        0    3.40121E+03   108.200     0.000    77.589    72.747    68.144    31.092     1.663    30.924    42.496     0.196     1.162     0.142     0.002     0.001     0.119     8.844     0.135     0.030 .00000E+00 0.000E+00 0.000E+00 0.000E+00 0.000E+00 0.000E+00
BIGSUB   9        0    3.39891E+03   166.900     0.000    73.390    72.085    81.580    51.140    14.734    17.418    56.338     0.165     1.772     0.228     0.432     0.019     0.193    23.614     0.472     0.017 .00000E+00 0.000E+00 0.000E+00 0.000E+00 0.000E+00 0.000E+00
BIGSUB  10        0    3.40511E+03   286.300     0.000   101.322    90.992    42.360    98.719    64.338    60.031   163.971    68.422     5.498     0.678     0.184     0.001     0.601    37.658     0.815     0.250 .00000E+00 0.000E+00 0.000E+00 0.000E+00 0.000E+00 0.000E+00
BIGSUB  11        0    3.21116E+03   172.200     0.000    79.542    73.647    44.716    73.719    14.155    12.835    39.451     4.662    16.426     2.014     1.123     0.002     1.635    12.062     0.384     0.014 .00000E+00 0.000E+00 0.000E+00 0.000E+00 0.000E+00 0.000E+00
BIGSUB   1        0    4.31032E+03    21.600     0.000    90.755    32.600    29.730     0.000     0.000    69.296    74.435     0.000     0.000     0.000     0.000     0.000     0.000     2.523     0.029     0.089 .00000E+00 0.000E+00 0.000E+00 0.000E+00 0.000E+00 0.000E+00
BIGSUB   2        0    4.24266E+03    20.200     0.000    79.993    33.426    37.044     0.000     0.005    27.735    29.833     0.000     0.001     0.000     0.000     0.000     0.000     1.352     0.041     0.024 .00000E+00 0.000E+00 0.000E+00 0.000E+00 0.000E+00 0.000E+00
BIGSUB   3        0    4.16038E+03    12.200     0.000    91.752    34.164    12.768     0.000     0.000     7.389     8.134     0.000     0.000     0.000     0.000     0.000     0.000     0.175     0.003     0.003 .00000E+00 0.000E+00 0.000E+00 0.000E+00 0.000E+00 0.000E+00
BIGSUB   4        0    4.74275E+03    23.100     0.000    91.128    33.279    30.372     0.000     0.144    46.947    50.185     0.151     0.003     0.000     0.000     0.000     0.001     1.414     0.030     0.096 .00000E+00 0.000E+00 0.000E+00 0.000E+00 0.000E+00 0.000E+00
BIGSUB   5        0    4.24150E+03    20.200     0.000    80.974    39.374    54.538     0.000     0.013    16.049    17.690     0.000     0.004     0.000     0.000     0.000     0.000     1.119     0.042     0.023 .00000E+00 0.000E+00 0.000E+00 0.000E+00 0.000E+00 0.000E+00
BIGSUB   6        0    4.36594E+03    23.100     0.000    90.907    32.255    30.059     0.000     0.216    66.783    70.878     0.244     0.005     0.001     0.000     0.000     0.001     1.509     0.028     0.138 .00000E+00 0.000E+00 0.000E+00 0.000E+00 0.000E+00 0.000E+00
BIGSUB   7        0    4.12040E+03    20.200     0.000    79.063    38.222    23.555     0.000     0.001    30.307    32.572     0.001     0.000     0.000     0.000     0.000     0.000     1.469     0.122     0.086 .00000E+00 0.000E+00 0.000E+00 0.000E+00 0.000E+00 0.000E+00
BIGSUB   8        0    4.40121E+03    14.000     0.000    81.677    39.337    42.717     0.000     0.000    25.548    27.206     0.000     0.000     0.000     0.000     0.000     0.000     0.548     0.009     0.018 .00000E+00 0.000E+00 0.000E+00 0.000E+00 0.000E+00 0.000E+00
BIGSUB   9        0    4.39891E+03    13.200     0.000    70.027    54.066    40.564     0.000     0.000    24.594    26.381     0.000     0.000     0.000     0.000     0.000     0.000     0.993     0.008     0.013 .00000E+00 0.000E+00 0.000E+00 0.000E+00 0.000E+00 0.000E+00
BIGSUB  10        0    4.40511E+03    21.600     0.000    90.747    35.439    27.831     0.000     0.041    58.414    62.500     0.021     0.000     0.000     0.000     0.000     0.000     1.819     0.066     0.261 .00000E+00 0.000E+00 0.000E+00 0.000E+00 0.000E+00 0.000E+00
BIGSUB  11        0    4.21116E+03    20.200     0.000    80.065    40.618    24.082     0.000     0.003    29.334    31.093     0.000     0.000     0.000     0.000     0.000     0.000     0.977     0.061     0.052 .00000E+00 0.000E+00 0.000E+00 0.000E+00 0.000E+00 0.000E+00
BIGSUB   1        0    5.31032E+03     2.800     0.000   135.003    20.055    12.458     0.000     0.000    40.448    43.173     0.000     0.000     0.000     0.000     0.000     0.000     0.261     0.001     0.023 .00000E+00 0.000E+00 0.000E+00 0.000E+00 0.000E+00 0.000E+00
BIGSUB   2        0    5.24266E+03     2.200     0.000   115.156    18.979    20.265     0.000     0.000    18.906    19.869     0.000     0.000     0.000     0.000     0.000     0.000     0.155     0.003     0.007 .00000E+00 0.000E+00 0.000E+00 0.000E+00 0.000E+00 0.000E+00
BIGSUB   3        0    5.16038E+03     3.200     0.000   105.019    12.024     3.912     0.000     0.000     0.634     1.172     0.000     0.000     0.000     0.000     0.000     0.000     0.054     0.001     0.000 .00000E+00 0.000E+00 0.000E+00 0.000E+00 0.000E+00 0.000E+00
BIGSUB   4        0    5.74275E+03     3.100     0.000   126.231    19.428    13.987     0.000     0.000    26.017    27.940     0.000     0.000     0.000     0.000     0.000     0.000     0.330     0.002     0.023 .00000E+00 0.000E+00 0.000E+00 0.000E+00 0.000E+00 0.000E+00
BIGSUB   5        0    5.24150E+03     2.200     0.000   115.783    21.681    35.057     0.000     0.000    12.719    13.442     0.000     0.000     0.000     0.000     0.000     0.000     0.144     0.003     0.008 .00000E+00 0.000E+00 0.000E+00 0.000E+00 0.000E+00 0.000E+00
BIGSUB   6        0    5.36594E+03     3.100     0.000   126.131    20.527    11.373     0.000     0.000    38.228    40.716     0.000     0.000     0.000     0.000     0.000     0.000     0.240     0.002     0.033 .00000E+00 0.000E+00 0.000E+00 0.000E+00 0.000E+00 0.000E+00
BIGSUB   7        0    5.12040E+03     2.200     0.000   114.560    16.457     9.298     0.000     0.000    20.014    21.037     0.000     0.000     0.000     0.000     0.000     0.000     0.165     0.007     0.025 .00000E+00 0.000E+00 0.000E+00 0.000E+00 0.000E+00 0.000E+00
BIGSUB   8        0    5.40121E+03     0.400     0.000   113.576    25.190    17.927     0.000     0.000    12.237    13.304     0.000     0.000     0.000     0.000     0.000     0.000     0.059     0.001     0.004 .00000E+00 0.000E+00 0.000E+00 0.000E+00 0.000E+00 0.000E+00
BIGSUB   9        0    5.39891E+03     2.200     0.000    95.833    37.943     4.821     0.000     0.000    15.332    16.205     0.000     0.000     0.000     0.000     0.000     0.000     0.075     0.000     0.003 .00000E+00 0.000E+00 0.000E+00 0.000E+00 0.000E+00 0.000E+00
BIGSUB  10        0    5.40511E+03     2.800     0.000   135.001    17.203    13.387     0.000     0.000    33.139    35.530     0.000     0.000     0.000     0.000     0.000     0.000     0.297     0.005     0.066 .00000E+00 0.000E+00 0.000E+00 0.000E+00 0.000E+00 0.000E+00
BIGSUB  11        0    5.21116E+03     2.200     0.000   115.202    15.811    10.469     0.000     0.000    19.445    20.410     0.000     0.000     0.000     0.000     0.000     0.000     0.122     0.004     0.015 .00000E+00 0.000E+00 0.000E+00 0.000E+00 0.000E+00 0.000E+00
BIGSUB   1        0    6.31032E+03     2.800     0.000   122.352     9.594     5.653     0.000     0.000    12.182    14.125     0.000     0.000     0.000     0.000     0.000     0.000     0.015     0.000     0.003 .00000E+00 0.000E+00 0.000E+00 0.000E+00 0.000E+00 0.000E+00
BIGSUB   2        0    6.24266E+03     1.700     0.000   105.550     9.344    12.620     0.000     0.000     4.905     5.575     0.000     0.000     0.000     0.000     0.000     0.000     0.005     0.000     0.001 .00000E+00 0.000E+00 0.000E+00 0.000E+00 0.000E+00 0.000E+00
BIGSUB   3        0    6.16038E+03     5.600     0.000    96.822     6.277     3.147     0.000     0.000     0.015     0.468     0.000     0.000     0.000     0.000     0.000     0.000     0.090     0.003     0.000 .00000E+00 0.000E+00 0.000E+00 0.000E+00 0.000E+00 0.000E+00
BIGSUB   4        0    6.74275E+03     4.200     0.000    99.789     8.763     9.392     0.000     0.000     5.620     6.910     0.000     0.000     0.000     0.000     0.000     0.000     0.041     0.000     0.002 .00000E+00 0.000E+00 0.000E+00 0.000E+00 0.000E+00 0.000E+00
BIGSUB   5        0    6.24150E+03     1.700     0.000   106.008     9.126    27.632     0.000     0.000     2.909     3.394     0.000     0.000     0.000     0.000     0.000     0.000     0.003     0.000     0.001 .00000E+00 0.000E+00 0.000E+00 0.000E+00 0.000E+00 0.000E+00
BIGSUB   6        0    6.36594E+03     4.200     0.000    99.704     9.664     5.512     0.000     0.000     8.862    10.647     0.000     0.000     0.000     0.000     0.000     0.000     0.021     0.000     0.003 .00000E+00 0.000E+00 0.000E+00 0.000E+00 0.000E+00 0.000E+00
BIGSUB   7        0    6.12040E+03     1.700     0.000   105.117     6.649     4.349     0.000     0.000     5.236     5.944     0.000     0.000     0.000     0.000     0.000     0.000     0.004     0.001     0.003 .00000E+00 0.000E+00 0.000E+00 0.000E+00 0.000E+00 0.000E+00
BIGSUB   8        0    6.40121E+03     0.000     0.000   107.593     8.197     9.729     0.000     0.000     0.671     1.453     0.000     0.000     0.000     0.000     0.000     0.000     0.004     0.000     0.000 .00000E+00 0.000E+00 0.000E+00 0.000E+00 0.000E+00 0.000E+00
BIGSUB   9        0    6.39891E+03     1.800     0.000    91.363     4.439     2.183     0.000     0.000     2.507     3.150     0.000     0.000     0.000     0.000     0.000     0.000     0.003     0.000     0.000 .00000E+00 0.000E+00 0.000E+00 0.000E+00 0.000E+00 0.000E+00
BIGSUB  10        0    6.40511E+03     2.800     0.000   122.352     7.690     8.466     0.000     0.000    10.163    11.845     0.000     0.000     0.000     0.000     0.000     0.000     0.044     0.001     0.010 .00000E+00 0.000E+00 0.000E+00 0.000E+00 0.000E+00 0.000E+00
BIGSUB  11        0    6.21116E+03     1.700     0.000   105.584     5.985     6.184     0.000     0.000     5.092     5.789     0.000     0.000     0.000     0.000     0.000     0.000     0.006     0.000     0.002 .00000E+00 0.000E+00 0.000E+00 0.000E+00 0.000E+00 0.000E+00
BIGSUB   1        0    7.31032E+03     0.500     0.000   149.075     3.125     3.028     0.000     0.000     0.351     1.887     0.000     0.000     0.000     0.000     0.000     0.000     0.001     0.000     0.000 .00000E+00 0.000E+00 0.000E+00 0.000E+00 0.000E+00 0.000E+00
BIGSUB   2        0    7.24266E+03     0.300     0.000   127.674     3.780     9.141     0.000     0.000     0.012     0.553     0.000     0.000     0.000     0.000     0.000     0.000     0.002     0.000     0.000 .00000E+00 0.000E+00 0.000E+00 0.000E+00 0.000E+00 0.000E+00
BIGSUB   3        0    7.16038E+03     0.200     0.000   125.516     0.545     2.802     0.000     0.000     0.000     0.285     0.000     0.000     0.000     0.000     0.000     0.000     0.001     0.000     0.000 .00000E+00 0.000E+00 0.000E+00 0.000E+00 0.000E+00 0.000E+00
BIGSUB   4        0    7.74275E+03     0.500     0.000   135.516     2.567     7.325     0.000     0.000     0.202     1.201     0.000     0.000     0.000     0.000     0.000     0.000     0.003     0.000     0.000 .00000E+00 0.000E+00 0.000E+00 0.000E+00 0.000E+00 0.000E+00
BIGSUB   5        0    7.24150E+03     0.300     0.000   127.965     4.553    23.379     0.000     0.000     0.003     0.398     0.000     0.000     0.000     0.000     0.000     0.000     0.001     0.000     0.000 .00000E+00 0.000E+00 0.000E+00 0.000E+00 0.000E+00 0.000E+00
BIGSUB   6        0    7.36594E+03     0.500     0.000   135.510     3.000     2.833     0.000     0.000     0.338     1.747     0.000     0.000     0.000     0.000     0.000     0.000     0.004     0.000     0.000 .00000E+00 0.000E+00 0.000E+00 0.000E+00 0.000E+00 0.000E+00
BIGSUB   7        0    7.12040E+03     0.300     0.000   127.398     2.216     2.433     0.000     0.000     0.013     0.585     0.000     0.000     0.000     0.000     0.000     0.000     0.001     0.000     0.000 .00000E+00 0.000E+00 0.000E+00 0.000E+00 0.000E+00 0.000E+00
BIGSUB   8        0    7.40121E+03     0.800     0.000   105.624     2.818     7.712     0.000     0.000     0.000     0.616     0.000     0.000     0.000     0.000     0.000     0.000     0.001     0.000     0.000 .00000E+00 0.000E+00 0.000E+00 0.000E+00 0.000E+00 0.000E+00
BIGSUB   9        0    7.39891E+03     0.600     0.000   110.412     1.515     1.268     0.000     0.000     0.024     0.539     0.000     0.000     0.000     0.000     0.000     0.000     0.001     0.000     0.000 .00000E+00 0.000E+00 0.000E+00 0.000E+00 0.000E+00 0.000E+00
BIGSUB  10        0    7.40511E+03     0.500     0.000   149.077     2.324     6.642     0.000     0.000     0.354     1.661     0.000     0.000     0.000     0.000     0.000     0.000     0.004     0.000     0.000 .00000E+00 0.000E+00 0.000E+00 0.000E+00 0.000E+00 0.000E+00
BIGSUB  11        0    7.21116E+03     0.300     0.000   127.696     2.081     4.403     0.000     0.000     0.014     0.577     0.000     0.000     0.000     0.000     0.000     0.000     0.002     0.000     0.000 .00000E+00 0.000E+00 0.000E+00 0.000E+00 0.000E+00 0.000E+00
BIGSUB   1        0    8.31032E+03     7.800     0.000   129.651     7.583     3.187     0.000     0.000     0.000     1.200     0.000     0.000     0.000     0.000     0.000     0.000     0.050     0.003     0.000 .00000E+00 0.000E+00 0.000E+00 0.000E+00 0.000E+00 0.000E+00
BIGSUB   2        0    8.24266E+03     6.800     0.000   118.309     7.639     8.266     0.000     0.000     0.000     0.440     0.000     0.000     0.000     0.000     0.000     0.000     0.031     0.002     0.000 .00000E+00 0.000E+00 0.000E+00 0.000E+00 0.000E+00 0.000E+00
BIGSUB   3        0    8.16038E+03     4.100     0.000   114.213     3.528     3.374     0.000     0.000     0.000     0.211     0.000     0.000     0.000     0.000     0.000     0.000     0.000     0.000     0.000 .00000E+00 0.000E+00 0.000E+00 0.000E+00 0.000E+00 0.000E+00
BIGSUB   4        0    8.74275E+03     7.700     0.000   120.587     7.423     7.515     0.000     0.000     0.000     0.828     0.000     0.000     0.000     0.000     0.000     0.000     0.081     0.003     0.000 .00000E+00 0.000E+00 0.000E+00 0.000E+00 0.000E+00 0.000E+00
BIGSUB   5        0    8.24150E+03     6.800     0.000   118.904     8.739    21.400     0.000     0.000     0.000     0.336     0.000     0.000     0.000     0.000     0.000     0.000     0.037     0.002     0.000 .00000E+00 0.000E+00 0.000E+00 0.000E+00 0.000E+00 0.000E+00
BIGSUB   6        0    8.36594E+03     7.700     0.000   120.475     7.454     3.076     0.000     0.000     0.000     1.072     0.000     0.000     0.000     0.000     0.000     0.000     0.018     0.001     0.000 .00000E+00 0.000E+00 0.000E+00 0.000E+00 0.000E+00 0.000E+00
BIGSUB   7        0    8.12040E+03     6.800     0.000   117.745     6.670     2.525     0.000     0.000     0.000     0.465     0.000     0.000     0.000     0.000     0.000     0.000     0.033     0.003     0.000 .00000E+00 0.000E+00 0.000E+00 0.000E+00 0.000E+00 0.000E+00
BIGSUB   8        0    8.40121E+03     6.700     0.000   107.481     7.240     7.142     0.000     0.000     0.000     0.486     0.000     0.000     0.000     0.000     0.000     0.000     0.027     0.013     0.000 .00000E+00 0.000E+00 0.000E+00 0.000E+00 0.000E+00 0.000E+00
BIGSUB   9        0    8.39891E+03     7.300     0.000    99.733     6.061     2.441     0.000     0.000     0.000     0.449     0.000     0.000     0.000     0.000     0.000     0.000     0.062     0.002     0.000 .00000E+00 0.000E+00 0.000E+00 0.000E+00 0.000E+00 0.000E+00
BIGSUB  10        0    8.40511E+03     7.800     0.000   129.648     7.318     7.007     0.000     0.000     0.000     1.090     0.000     0.000     0.000     0.000     0.000     0.000     0.113     0.005     0.000 .00000E+00 0.000E+00 0.000E+00 0.000E+00 0.000E+00 0.000E+00
BIGSUB  11        0    8.21116E+03     6.800     0.000   118.353     6.576     4.592     0.000     0.000     0.000     0.458     0.000     0.000     0.000     0.000     0.000     0.000     0.033     0.002     0.000 .00000E+00 0.000E+00 0.000E+00 0.000E+00 0.000E+00 0.000E+00
BIGSUB   1        0    9.31032E+03    30.800     0.000    91.101    19.821    13.679     0.000     0.000     0.000     1.210     0.000     0.000     0.000     0.000     0.000     0.000     0.380     0.007     0.000 .00000E+00 0.000E+00 0.000E+00 0.000E+00 0.000E+00 0.000E+00
BIGSUB   2        0    9.24266E+03    20.600     0.000    83.636    16.327    12.378     0.000     0.000     0.000     0.423     0.000     0.000     0.000     0.000     0.000     0.000     0.127     0.004     0.000 .00000E+00 0.000E+00 0.000E+00 0.000E+00 0.000E+00 0.000E+00
BIGSUB   3        0    9.16038E+03     9.200     0.000    90.734     8.190     4.340     0.000     0.000     0.000     0.173     0.000     0.000     0.000     0.000     0.000     0.000     0.021     0.007     0.000 .00000E+00 0.000E+00 0.000E+00 0.000E+00 0.000E+00 0.000E+00
BIGSUB   4        0    9.74275E+03    35.200     0.000    96.730    22.248    19.277     0.000     0.000     0.000     1.653     0.000     0.000     0.000     0.000     0.000     0.000     1.115     0.007     0.000 .00000E+00 0.000E+00 0.000E+00 0.000E+00 0.000E+00 0.000E+00
BIGSUB   5        0    9.24150E+03    20.600     0.000    84.670    17.116    24.706     0.000     0.000     0.000     0.368     0.000     0.000     0.000     0.000     0.000     0.000     0.151     0.005     0.000 .00000E+00 0.000E+00 0.000E+00 0.000E+00 0.000E+00 0.000E+00
BIGSUB   6        0    9.36594E+03    35.200     0.000    96.510    22.438    16.352     0.000     0.000     0.000     1.068     0.000     0.000     0.000     0.000     0.000     0.000     0.308     0.004     0.000 .00000E+00 0.000E+00 0.000E+00 0.000E+00 0.000E+00 0.000E+00
BIGSUB   7        0    9.12040E+03    20.600     0.000    82.656    15.743     7.209     0.000     0.000     0.000     0.446     0.000     0.000     0.000     0.000     0.000     0.000     0.133     0.008     0.000 .00000E+00 0.000E+00 0.000E+00 0.000E+00 0.000E+00 0.000E+00
BIGSUB   8        0    9.40121E+03    18.900     0.000    74.100    18.613     7.345     0.000     0.000     0.000     0.408     0.000     0.000     0.000     0.000     0.000     0.000     0.077     0.025     0.000 .00000E+00 0.000E+00 0.000E+00 0.000E+00 0.000E+00 0.000E+00
BIGSUB   9        0    9.39891E+03    17.300     0.000    69.190    14.208     5.370     0.000     0.000     0.000     0.426     0.000     0.000     0.000     0.000     0.000     0.000     0.146     0.002     0.000 .00000E+00 0.000E+00 0.000E+00 0.000E+00 0.000E+00 0.000E+00
BIGSUB  10        0    9.40511E+03    30.800     0.000    91.092    19.521    17.410     0.000     0.000     0.000     1.516     0.000     0.000     0.000     0.000     0.000     0.000     0.812     0.013     0.000 .00000E+00 0.000E+00 0.000E+00 0.000E+00 0.000E+00 0.000E+00
BIGSUB  11        0    9.21116E+03    20.600     0.000    83.712    15.737     9.305     0.000     0.000     0.000     0.436     0.000     0.000     0.000     0.000     0.000     0.000     0.129     0.005     0.000 .00000E+00 0.000E+00 0.000E+00 0.000E+00 0.000E+00 0.000E+00
BIGSUB   1        0   10.31032E+03    67.000     0.000    89.417    52.133    26.966     0.000     0.006     0.000     2.267     0.012     0.000     0.000     0.000     0.000     0.000     1.625     0.008     0.000 .00000E+00 0.000E+00 0.000E+00 0.000E+00 0.000E+00 0.000E+00
BIGSUB   2        0   10.24266E+03    57.100     0.000    82.735    44.911    23.727     0.000     0.134     0.000     1.064     0.008     0.061     0.007     0.000     0.000     0.007     0.702     0.002     0.000 .00000E+00 0.000E+00 0.000E+00 0.000E+00 0.000E+00 0.000E+00
BIGSUB   3        0   10.16038E+03    85.300     0.000    69.511    37.738    47.226     0.486     0.051     0.000     3.747     0.018     0.008     0.001     0.000     0.000     0.003     3.580     0.095     0.000 .00000E+00 0.000E+00 0.000E+00 0.000E+00 0.000E+00 0.000E+00
BIGSUB   4        0   10.74275E+03   117.700     0.000    82.461    60.987    48.326    13.094     4.640     0.038    14.665     5.489     0.431     0.059     0.001     0.000     0.115     9.567     0.058     0.000 .00000E+00 0.000E+00 0.000E+00 0.000E+00 0.000E+00 0.000E+00
BIGSUB   5        0   10.24150E+03    57.100     0.000    83.775    45.659    35.011     0.000     0.372     0.000     1.299     0.042     0.247     0.030     0.000     0.000     0.027     0.760     0.002     0.000 .00000E+00 0.000E+00 0.000E+00 0.000E+00 0.000E+00 0.000E+00
BIGSUB   6        0   10.36594E+03   117.700     0.000    82.221    60.995    48.191    21.263     2.784     0.060     7.627     3.782     0.375     0.047     0.001     0.000     0.039     4.186     0.060     0.000 .00000E+00 0.000E+00 0.000E+00 0.000E+00 0.000E+00 0.000E+00
BIGSUB   7        0   10.12040E+03    57.100     0.000    81.748    44.205    19.302     0.000     0.051     0.000     1.037     0.130     0.052     0.006     0.000     0.000     0.005     0.747     0.003     0.000 .00000E+00 0.000E+00 0.000E+00 0.000E+00 0.000E+00 0.000E+00
BIGSUB   8        0   10.40121E+03    33.300     0.000    79.391    30.730     9.705     0.000     0.000     0.000     0.460     0.000     0.000     0.000     0.000     0.000     0.000     0.207     0.010     0.000 .00000E+00 0.000E+00 0.000E+00 0.000E+00 0.000E+00 0.000E+00
BIGSUB   9        0   10.39891E+03    67.000     0.000    67.953    49.202    21.826     0.000     0.000     0.000     1.505     0.000     0.000     0.000     0.000     0.000     0.000     1.291     0.002     0.000 .00000E+00 0.000E+00 0.000E+00 0.000E+00 0.000E+00 0.000E+00
BIGSUB  10        0   10.40511E+03    67.000     0.000    89.408    51.153    28.913     0.000     2.047     0.000     4.906     3.059     0.040     0.006     0.001     0.000     0.014     2.320     0.012     0.000 .00000E+00 0.000E+00 0.000E+00 0.000E+00 0.000E+00 0.000E+00
BIGSUB  11        0   10.21116E+03    57.100     0.000    82.812    45.003    20.519     0.000     0.256     0.000     1.112     0.127     0.057     0.007     0.000     0.000     0.022     0.621     0.002     0.000 .00000E+00 0.000E+00 0.000E+00 0.000E+00 0.000E+00 0.000E+00
BIGSUB   1        0   11.31032E+03    38.400     0.000    93.561    42.935    21.952     0.000     0.000     0.000     0.936     0.000     0.000     0.000     0.000     0.000     0.000     0.481     0.001     0.000 .00000E+00 0.000E+00 0.000E+00 0.000E+00 0.000E+00 0.000E+00
BIGSUB   2        0   11.24266E+03    33.500     0.000    87.671    38.443    18.533     0.000     0.000     0.000     0.425     0.000     0.000     0.000     0.000     0.000     0.000     0.262     0.001     0.000 .00000E+00 0.000E+00 0.000E+00 0.000E+00 0.000E+00 0.000E+00
BIGSUB   3        0   11.16038E+03    52.400     0.000    79.488    51.465    33.819     9.765     0.578     0.037     5.288     0.169     0.232     0.029     0.001     0.000     0.032     4.544     0.138     0.000 .00000E+00 0.000E+00 0.000E+00 0.000E+00 0.000E+00 0.000E+00
BIGSUB   4        0   11.74275E+03    51.300     0.000    92.150    56.111    40.881     0.374     0.368     3.049     5.880     0.234     0.015     0.002     0.001     0.000     0.006     2.078     0.010     0.001 .00000E+00 0.000E+00 0.000E+00 0.000E+00 0.000E+00 0.000E+00
BIGSUB   5        0   11.24150E+03    33.500     0.000    88.973    38.796    29.437     0.000     0.000     0.000     0.401     0.000     0.000     0.000     0.000     0.000     0.000     0.281     0.001     0.000 .00000E+00 0.000E+00 0.000E+00 0.000E+00 0.000E+00 0.000E+00
BIGSUB   6        0   11.36594E+03    51.300     0.000    91.836    57.197    40.179     0.553     0.475     5.323     7.630     0.372     0.007     0.001     0.001     0.000     0.001     1.270     0.015     0.002 .00000E+00 0.000E+00 0.000E+00 0.000E+00 0.000E+00 0.000E+00
BIGSUB   7        0   11.12040E+03    33.500     0.000    86.434    38.033    14.502     0.000     0.000     0.000     0.451     0.000     0.000     0.000     0.000     0.000     0.000     0.279     0.001     0.000 .00000E+00 0.000E+00 0.000E+00 0.000E+00 0.000E+00 0.000E+00
BIGSUB   8        0   11.40121E+03    36.300     0.000    97.500    30.299    15.375     0.000     0.000     0.000     0.416     0.000     0.000     0.000     0.000     0.000     0.000     0.235     0.004     0.000 .00000E+00 0.000E+00 0.000E+00 0.000E+00 0.000E+00 0.000E+00
BIGSUB   9        0   11.39891E+03    59.000     0.000    74.950    58.012    21.718     0.000     0.000     0.000     1.211     0.000     0.000     0.000     0.000     0.000     0.000     1.057     0.002     0.000 .00000E+00 0.000E+00 0.000E+00 0.000E+00 0.000E+00 0.000E+00
BIGSUB  10        0   11.40511E+03    38.400     0.000    93.549    42.028    24.394     0.000     0.000     0.000     1.257     0.000     0.000     0.000     0.000     0.000     0.000     0.871     0.002     0.000 .00000E+00 0.000E+00 0.000E+00 0.000E+00 0.000E+00 0.000E+00
BIGSUB  11        0   11.21116E+03    33.500     0.000    87.767    37.881    15.903     0.000     0.000     0.000     0.410     0.000     0.000     0.000     0.000     0.000     0.000     0.241     0.001     0.000 .00000E+00 0.000E+00 0.000E+00 0.000E+00 0.000E+00 0.000E+00
BIGSUB   1        0   12.31032E+03   209.800     0.000   121.143    90.418    45.892    64.033    11.186     2.185    31.710    39.991     1.523     0.192     0.002     0.000     0.156    17.917     0.233     0.002 .00000E+00 0.000E+00 0.000E+00 0.000E+00 0.000E+00 0.000E+00
BIGSUB   2        0   12.24266E+03   111.900     0.000    94.898    67.098    52.223     7.312     0.112     0.000     3.434     0.004     0.043     0.005     0.000     0.000     0.005     3.192     0.043     0.000 .00000E+00 0.000E+00 0.000E+00 0.000E+00 0.000E+00 0.000E+00
BIGSUB   3        0   12.16038E+03   145.900     0.000    81.543    72.132    46.578    37.734     8.788     5.092    28.283     8.919    13.279     1.642     0.008     0.005     1.401    14.176     0.324     0.005 .00000E+00 0.000E+00 0.000E+00 0.000E+00 0.000E+00 0.000E+00
BIGSUB   4        0   12.74275E+03   158.600     0.000    94.317    78.180    50.252    39.929    11.210     8.040    39.173     9.141     2.479     0.327     0.003     0.001     0.414    19.500     0.104     0.004 .00000E+00 0.000E+00 0.000E+00 0.000E+00 0.000E+00 0.000E+00
BIGSUB   5        0   12.24150E+03   111.900     0.000    96.066    67.609    67.704     2.340     0.299     0.000     3.474     0.018     0.168     0.021     0.000     0.000     0.019     3.083     0.031     0.000 .00000E+00 0.000E+00 0.000E+00 0.000E+00 0.000E+00 0.000E+00
BIGSUB   6        0   12.36594E+03   158.600     0.000    94.007    78.698    49.353    57.093     9.527    13.347    32.558    11.917     3.295     0.422     0.003     0.000     0.364     9.060     0.104     0.006 .00000E+00 0.000E+00 0.000E+00 0.000E+00 0.000E+00 0.000E+00
BIGSUB   7        0   12.12040E+03   111.900     0.000    93.790    66.382    46.311     9.337     0.245     0.000     3.921     0.344     0.228     0.028     0.000     0.000     0.020     3.538     0.078     0.000 .00000E+00 0.000E+00 0.000E+00 0.000E+00 0.000E+00 0.000E+00
BIGSUB   8        0   12.40121E+03   179.800     0.000    96.923    73.335    73.391    35.203     2.175     0.450    11.960     0.631     2.378     0.294     0.002     0.001     0.208     9.172     0.481     0.001 .00000E+00 0.000E+00 0.000E+00 0.000E+00 0.000E+00 0.000E+00
BIGSUB   9        0   12.39891E+03   174.600     0.000   102.883    87.632    82.385    11.701     2.545     0.093    13.530     0.043     0.384     0.048     0.001     0.002     0.038    10.765     0.051     0.000 .00000E+00 0.000E+00 0.000E+00 0.000E+00 0.000E+00 0.000E+00
BIGSUB  10        0   12.40511E+03   209.800     0.000   121.133    89.637    48.748    54.427    16.456     1.944    42.120    27.662     3.621     0.461     0.006     0.001     0.392    23.363     0.234     0.004 .00000E+00 0.000E+00 0.000E+00 0.000E+00 0.000E+00 0.000E+00
BIGSUB  11        0   12.21116E+03   111.900     0.000    94.984    67.170    49.150     7.529     0.505     0.000     3.714     0.103     0.086     0.011     0.000     0.000     0.031     3.074     0.043     0.000 .00000E+00 0.000E+00 0.000E+00 0.000E+00 0.000E+00 0.000E+00
BIGSUB   1        0 2078.31032E+03  1115.100     0.000  1315.003   536.609    45.892   354.337   117.643   295.065   535.688   374.679    74.150     9.102     1.014     0.004     6.489   106.268     1.022     0.323 .00000E+00 0.000E+00 0.000E+00 0.000E+00 0.000E+00 0.000E+00
BIGSUB   2        0 2078.24266E+03   617.500     0.000  1156.508   469.854    52.223   101.297    12.283    63.346   108.594     9.918    33.842     4.144     0.008     0.004     2.914    28.380     0.587     0.040 .00000E+00 0.000E+00 0.000E+00 0.000E+00 0.000E+00 0.000E+00
BIGSUB   3        0 2078.16038E+03   537.800     0.000  1097.229   399.569    46.578    81.609    13.203    55.375   110.880    11.313    16.654     2.057     0.019     0.008     1.864    38.157     0.952     0.058 .00000E+00 0.000E+00 0.000E+00 0.000E+00 0.000E+00 0.000E+00
BIGSUB   4        0 2078.74275E+03   967.000     0.000  1207.651   531.873    50.252   233.080    83.279   183.660   395.427   106.700    38.234     4.856     0.029     0.015     5.450   117.711     1.443     0.327 .00000E+00 0.000E+00 0.000E+00 0.000E+00 0.000E+00 0.000E+00
BIGSUB   5        0 2078.24150E+03   617.500     0.000  1167.570   486.158    67.704    67.673    18.111    35.891    89.837     4.629    19.957     2.443     0.006     0.007     1.895    32.656     0.952     0.036 .00000E+00 0.000E+00 0.000E+00 0.000E+00 0.000E+00 0.000E+00
BIGSUB   6        0 2078.36594E+03   967.000     0.000  1205.236   535.681    49.353   331.716    72.526   271.174   415.787   151.870    60.747     7.604     0.027     0.007     6.073    56.812     1.115     0.476 .00000E+00 0.000E+00 0.000E+00 0.000E+00 0.000E+00 0.000E+00
BIGSUB   7        0 2078.12040E+03   617.500     0.000  1146.016   463.836    46.311   109.883    11.730    69.882   115.893    14.284    35.756     4.382     0.050     0.002     2.981    29.366     1.062     0.137 .00000E+00 0.000E+00 0.000E+00 0.000E+00 0.000E+00 0.000E+00
BIGSUB   8        0 2078.40121E+03   642.900     0.000  1093.214   455.527    73.391   139.785     6.974   112.827   167.712     0.977     5.000     0.613     0.009     0.003     0.476    40.732     1.146     0.147 .00000E+00 0.000E+00 0.000E+00 0.000E+00 0.000E+00 0.000E+00
BIGSUB   9        0 2078.39891E+03   741.300     0.000  1025.208   539.908    82.385   107.057    25.648    74.066   167.576     0.347     3.280     0.423     0.574     0.036     0.337    62.853     1.448     0.053 .00000E+00 0.000E+00 0.000E+00 0.000E+00 0.000E+00 0.000E+00
BIGSUB  10        0 2078.40511E+03  1115.100     0.000  1314.920   532.375    48.748   301.077   152.468   246.909   542.345   234.532    62.422     7.732     3.089     0.007     6.446   128.731     1.865     0.901 .00000E+00 0.000E+00 0.000E+00 0.000E+00 0.000E+00 0.000E+00
BIGSUB  11        0 2078.21116E+03   617.500     0.000  1157.323   467.073    49.150   105.945    16.943    67.644   113.004     5.891    18.491     2.268     1.125     0.003     1.925    23.603     0.616     0.084 .00000E+00 0.000E+00 0.000E+00 0.000E+00 0.000E+00 0.000E+00
BIGSUB   1        0    1.31032E+03   268.400     0.000   108.254    97.998    46.165   112.140    25.979    42.072   101.007    85.235    29.851     3.658     0.003     0.001     2.584    31.915     0.138     0.028 .00000E+00 0.000E+00 0.000E+00 0.000E+00 0.000E+00 0.000E+00
[...]
BIGSUB   6        0    8.36594E+03    16.900     0.000   129.722    12.280     7.594     0.000     0.000     0.000     1.352     0.000     0.000     0.000     0.000     0.000     0.000     0.087     0.003     0.000 .00000E+00 0.000E+00 0.000E+00 0.000E+00 0.000E+00 0.000E+00
BIGSUB   7        0    8.12040E+03    15.400     0.000   122.459     9.923     7.533     0.000     0.000     0.000     0.372     0.000     0.000     0.000     0.000     0.000     0.000     0.111     0.008     0.000 .00000E+00 0.000E+00 0.000E+00 0.000E+00 0.000E+00 0.000E+00
BIGSUB   8        0    8.40121E+03    12.700     0.000   113.453     9.886    21.284     0.000     0.000     0.000     0.588     0.000     0.000     0.000     0.000     0.000     0.000     0.049     0.001     0.000 .00000E+00 0.000E+00 0.000E+00 0.000E+00 0.000E+00 0.000E+00
BIGSUB   9        0    8.39891E+03    16.000     0.000   104.451    10.159     8.078     0.000     0.000     0.000     0.454     0.000     0.000     0.000     0.000     0.000     0.000     0.179     0.069     0.000 .00000E+00 0.000E+00 0.000E+00 0.000E+00 0.000E+00 0.000E+00
BIGSUB  10        0    8.40511E+03    16.300     0.000   137.557    10.857    11.271     0.000     0.000     0.000     1.104     0.000     0.000     0.000     0.000     0.000     0.000     0.384     0.010     0.000 .00000E+00 0.000E+00 0.000E+00 0.000E+00 0.000E+00 0.000E+00
BIGSUB  11        0    8.21116E+03    15.400     0.000   123.196     9.834     9.650     0.000     0.000     0.000     0.370     0.000     0.000     0.000     0.000     0.000     0.000     0.117     0.006     0.000 .00000E+00 0.000E+00 0.000E+00 0.000E+00 0.000E+00 0.000E+00
BIGSUB   1        0    9.31032E+03    50.700     0.000    86.371    35.270    21.987     0.000     0.000     0.000     1.727     0.000     0.000     0.000     0.000     0.000     0.000     1.120     0.002     0.000 .00000E+00 0.000E+00 0.000E+00 0.000E+00 0.000E+00 0.000E+00
BIGSUB   2        0    9.24266E+03    32.100     0.000    79.709    25.151    19.610     0.000     0.000     0.000     0.616     0.000     0.000     0.000     0.000     0.000     0.000     0.440     0.002     0.000 .00000E+00 0.000E+00 0.000E+00 0.000E+00 0.000E+00 0.000E+00
BIGSUB   3        0    9.16038E+03    21.400     0.000    75.015    19.955     9.932     0.000     0.000     0.000     0.696     0.000     0.000     0.000     0.000     0.000     0.000     0.409     0.007     0.000 .00000E+00 0.000E+00 0.000E+00 0.000E+00 0.000E+00 0.000E+00
BIGSUB   4        0    9.74275E+03   106.700     0.000    78.050    42.440    45.878    12.236     8.532     0.379    18.731     8.651     0.735     0.095     0.002     0.000     0.081     9.160     0.054     0.000 .00000E+00 0.000E+00 0.000E+00 0.000E+00 0.000E+00 0.000E+00
BIGSUB   5        0    9.24150E+03    32.100     0.000    80.721    26.002    31.938     0.000     0.000     0.000     0.594     0.000     0.000     0.000     0.000     0.000     0.000     0.473     0.002     0.000 .00000E+00 0.000E+00 0.000E+00 0.000E+00 0.000E+00 0.000E+00
BIGSUB   6        0    9.36594E+03   106.700     0.000    77.816    42.539    45.562    19.770     6.473     0.645    12.243     9.310     0.942     0.120     0.001     0.000     0.067     4.194     0.046     0.000 .00000E+00 0.000E+00 0.000E+00 0.000E+00 0.000E+00 0.000E+00
BIGSUB   7        0    9.12040E+03    32.100     0.000    78.749    24.469    14.744     0.000     0.000     0.000     0.657     0.000     0.000     0.000     0.000     0.000     0.000     0.469     0.004     0.000 .00000E+00 0.000E+00 0.000E+00 0.000E+00 0.000E+00 0.000E+00
BIGSUB   8        0    9.40121E+03    22.600     0.000    70.017    22.011    21.732     0.000     0.000     0.000     0.586     0.000     0.000     0.000     0.000     0.000     0.000     0.199     0.001     0.000 .00000E+00 0.000E+00 0.000E+00 0.000E+00 0.000E+00 0.000E+00
BIGSUB   9        0    9.39891E+03    24.500     0.000    65.126    26.214     6.028     0.000     0.000     0.000     0.596     0.000     0.000     0.000     0.000     0.000     0.000     0.398     0.008     0.000 .00000E+00 0.000E+00 0.000E+00 0.000E+00 0.000E+00 0.000E+00
BIGSUB  10        0    9.40511E+03    50.700     0.000    86.362    34.905    24.963     0.000     0.213     0.000     2.672     0.184     0.003     0.000     0.000     0.000     0.001     1.942     0.005     0.000 .00000E+00 0.000E+00 0.000E+00 0.000E+00 0.000E+00 0.000E+00
BIGSUB  11        0    9.21116E+03    32.100     0.000    79.784    24.961    16.439     0.000     0.000     0.000     0.564     0.000     0.000     0.000     0.000     0.000     0.000     0.381     0.003     0.000 .00000E+00 0.000E+00 0.000E+00 0.000E+00 0.000E+00 0.000E+00
BIGSUB   1        0   10.31032E+03    91.200     0.000   101.518    65.623    35.513     7.421     0.320     0.000     4.507     0.859     0.045     0.006     0.000     0.000     0.004     3.720     0.042     0.000 .00000E+00 0.000E+00 0.000E+00 0.000E+00 0.000E+00 0.000E+00
BIGSUB   2        0   10.24266E+03    75.000     0.000    90.890    56.356    36.749     0.000     0.064     0.000     1.492     0.002     0.019     0.002     0.000     0.000     0.002     1.293     0.009     0.000 .00000E+00 0.000E+00 0.000E+00 0.000E+00 0.000E+00 0.000E+00
BIGSUB   3        0   10.16038E+03   161.900     0.000    74.561    52.856    47.640    39.129    16.044     0.763    32.185    15.398     7.762     0.978     0.004     0.004     0.884    15.127     0.090     0.000 .00000E+00 0.000E+00 0.000E+00 0.000E+00 0.000E+00 0.000E+00
BIGSUB   4        0   10.74275E+03   259.400     0.000    89.280    71.005    43.160    76.862    81.228    10.957   125.155   150.004    11.690     1.513     0.006     0.003     0.946    32.277     0.134     0.005 .00000E+00 0.000E+00 0.000E+00 0.000E+00 0.000E+00 0.000E+00
BIGSUB   5        0   10.24150E+03    75.000     0.000    91.980    56.591    48.599     0.000     0.167     0.000     1.741     0.007     0.072     0.009     0.000     0.000     0.008     1.481     0.009     0.000 .00000E+00 0.000E+00 0.000E+00 0.000E+00 0.000E+00 0.000E+00
BIGSUB   6        0   10.36594E+03   259.400     0.000    89.022    71.145    41.870   110.668    77.194    17.870   112.178   232.141    16.441     2.114     0.004     0.002     1.093    16.114     0.083     0.007 .00000E+00 0.000E+00 0.000E+00 0.000E+00 0.000E+00 0.000E+00
BIGSUB   7        0   10.12040E+03    75.000     0.000    89.855    55.758    32.331     0.000     0.123     0.000     1.630     0.153     0.062     0.008     0.000     0.000     0.006     1.363     0.015     0.000 .00000E+00 0.000E+00 0.000E+00 0.000E+00 0.000E+00 0.000E+00
BIGSUB   8        0   10.40121E+03    57.100     0.000   102.616    45.530    32.649     0.000     0.009     0.000     0.908     0.000     0.002     0.000     0.000     0.000     0.000     0.604     0.000     0.000 .00000E+00 0.000E+00 0.000E+00 0.000E+00 0.000E+00 0.000E+00
BIGSUB   9        0   10.39891E+03    86.700     0.000    75.527    59.198    31.092     0.000     0.000     0.000     2.472     0.000     0.000     0.000     0.000     0.000     0.000     2.321     0.022     0.000 .00000E+00 0.000E+00 0.000E+00 0.000E+00 0.000E+00 0.000E+00
BIGSUB  10        0   10.40511E+03    91.200     0.000   101.508    64.764    37.531     6.042     2.074     0.000     7.905     2.097     0.109     0.014     0.002     0.000     0.015     5.433     0.051     0.000 .00000E+00 0.000E+00 0.000E+00 0.000E+00 0.000E+00 0.000E+00
BIGSUB  11        0   10.21116E+03    75.000     0.000    90.971    56.328    33.474     0.000     0.279     0.000     1.672     0.053     0.029     0.004     0.000     0.000     0.010     1.254     0.013     0.000 .00000E+00 0.000E+00 0.000E+00 0.000E+00 0.000E+00 0.000E+00
BIGSUB   1        0   11.31032E+03    73.800     0.000   105.004    66.666    39.921     0.953     0.017     0.000     2.550     0.033     0.002     0.000     0.000     0.000     0.000     2.150     0.017     0.000 .00000E+00 0.000E+00 0.000E+00 0.000E+00 0.000E+00 0.000E+00
BIGSUB   2        0   11.24266E+03    59.100     0.000    97.236    58.151    36.918     0.000     0.005     0.000     0.917     0.000     0.001     0.000     0.000     0.000     0.000     0.815     0.003     0.000 .00000E+00 0.000E+00 0.000E+00 0.000E+00 0.000E+00 0.000E+00
BIGSUB   3        0   11.16038E+03   174.700     0.000    74.240    61.878    44.213    66.427    27.562    24.420    75.189    22.163    10.441     1.353     0.008     0.007     1.201    22.577     0.089     0.006 .00000E+00 0.000E+00 0.000E+00 0.000E+00 0.000E+00 0.000E+00
BIGSUB   4        0   11.74275E+03    91.200     0.000    89.441    66.147    46.476    11.009     3.920    31.780    44.098     3.455     0.091     0.012     0.001     0.000     0.009     7.357     0.017     0.012 .00000E+00 0.000E+00 0.000E+00 0.000E+00 0.000E+00 0.000E+00
BIGSUB   5        0   11.24150E+03    59.100     0.000    98.303    58.023    48.813     0.000     0.010     0.000     0.931     0.000     0.004     0.000     0.000     0.000     0.000     0.854     0.002     0.000 .00000E+00 0.000E+00 0.000E+00 0.000E+00 0.000E+00 0.000E+00
BIGSUB   6        0   11.36594E+03    91.200     0.000    89.187    66.731    45.498    16.084     3.079    48.012    57.187     3.796     0.089     0.011     0.001     0.000     0.006     4.587     0.010     0.016 .00000E+00 0.000E+00 0.000E+00 0.000E+00 0.000E+00 0.000E+00
BIGSUB   7        0   11.12040E+03    59.100     0.000    96.223    57.819    32.760     0.000     0.030     0.000     1.007     0.038     0.016     0.002     0.000     0.000     0.001     0.874     0.006     0.000 .00000E+00 0.000E+00 0.000E+00 0.000E+00 0.000E+00 0.000E+00
BIGSUB   8        0   11.40121E+03    75.300     0.000   102.285    59.890    46.580     0.000     0.392     0.000     1.529     0.025     0.203     0.025     0.000     0.000     0.022     0.926     0.002     0.000 .00000E+00 0.000E+00 0.000E+00 0.000E+00 0.000E+00 0.000E+00
BIGSUB   9        0   11.39891E+03   101.400     0.000    78.759    70.070    57.921     1.107     0.064     0.000     3.106     0.001     0.008     0.001     0.000     0.000     0.000     2.934     0.026     0.000 .00000E+00 0.000E+00 0.000E+00 0.000E+00 0.000E+00 0.000E+00
BIGSUB  10        0   11.40511E+03    73.800     0.000   104.995    65.257    41.868     0.902     0.442     0.000     3.749     0.408     0.014     0.002     0.000     0.000     0.003     2.983     0.021     0.000 .00000E+00 0.000E+00 0.000E+00 0.000E+00 0.000E+00 0.000E+00
BIGSUB  11        0   11.21116E+03    59.100     0.000    97.315    57.969    33.846     0.000     0.044     0.000     0.885     0.009     0.005     0.001     0.000     0.000     0.002     0.741     0.004     0.000 .00000E+00 0.000E+00 0.000E+00 0.000E+00 0.000E+00 0.000E+00
BIGSUB   1        0   12.31032E+03   281.600     0.000   105.121    96.844    46.089   126.414    16.155    16.279    64.819    35.751     2.168     0.269     0.001     0.000     0.174    31.791     0.214     0.010 .00000E+00 0.000E+00 0.000E+00 0.000E+00 0.000E+00 0.000E+00
BIGSUB   2        0   12.24266E+03   147.600     0.000    82.618    78.412    54.622    40.337     0.863     0.512    10.438     0.242     0.864     0.105     0.000     0.001     0.079     8.924     0.184     0.000 .00000E+00 0.000E+00 0.000E+00 0.000E+00 0.000E+00 0.000E+00
BIGSUB   3        0   12.16038E+03   168.700     0.000    84.842    76.057    48.335    55.837    12.914    42.486    76.368    13.674     4.905     0.664     0.004     0.003     0.648    19.827     0.067     0.009 .00000E+00 0.000E+00 0.000E+00 0.000E+00 0.000E+00 0.000E+00
BIGSUB   4        0   12.74275E+03   204.200     0.000    90.223    85.749    50.559    69.403    11.887    37.256    82.770    10.678     0.350     0.046     0.001     0.000     0.034    32.314     0.086     0.010 .00000E+00 0.000E+00 0.000E+00 0.000E+00 0.000E+00 0.000E+00
BIGSUB   5        0   12.24150E+03   147.600     0.000    83.738    79.338    79.071    24.750     1.804     0.115    12.136     0.167     1.261     0.154     0.000     0.001     0.132    10.138     0.202     0.000 .00000E+00 0.000E+00 0.000E+00 0.000E+00 0.000E+00 0.000E+00
BIGSUB   6        0   12.36594E+03   204.200     0.000    89.925    86.159    49.705    96.615    10.101    54.132    80.634    13.310     0.369     0.047     0.001     0.000     0.024    14.507     0.027     0.012 .00000E+00 0.000E+00 0.000E+00 0.000E+00 0.000E+00 0.000E+00
BIGSUB   7        0   12.12040E+03   147.600     0.000    81.554    77.400    46.669    44.571     1.000     0.640    11.076     1.111     1.097     0.134     0.000     0.000     0.085     9.281     0.306     0.001 .00000E+00 0.000E+00 0.000E+00 0.000E+00 0.000E+00 0.000E+00
BIGSUB   8        0   12.40121E+03   262.300     0.000    84.656    80.132    73.781   110.008    16.842     7.617    49.769     4.634    17.123     2.126     0.001     0.008     1.608    24.972     0.161     0.004 .00000E+00 0.000E+00 0.000E+00 0.000E+00 0.000E+00 0.000E+00
BIGSUB   9        0   12.39891E+03   230.100     0.000    89.828    87.321    86.552    64.823    15.835     4.539    51.626     0.132     2.498     0.263     0.013     0.014     0.152    31.055     0.175     0.005 .00000E+00 0.000E+00 0.000E+00 0.000E+00 0.000E+00 0.000E+00
BIGSUB  10        0   12.40511E+03   281.600     0.000   105.110    96.236    48.952   108.725    25.416    13.714    81.151    26.178     4.058     0.513     0.003     0.001     0.313    41.516     0.253     0.020 .00000E+00 0.000E+00 0.000E+00 0.000E+00 0.000E+00 0.000E+00
BIGSUB  11        0   12.21116E+03   147.600     0.000    82.700    78.008    49.846    43.052     1.827     0.614    10.402     0.323     0.613     0.077     0.001     0.000     0.080     7.812     0.159     0.001 .00000E+00 0.000E+00 0.000E+00 0.000E+00 0.000E+00 0.000E+00
BIGSUB   1        0 2099.31032E+03  1143.500     0.000  1343.912   600.163    46.089   363.541    69.589   247.882   440.006   262.280    40.354     4.919     0.006     0.001     3.485   108.531     0.867     0.240 .00000E+00 0.000E+00 0.000E+00 0.000E+00 0.000E+00 0.000E+00
BIGSUB   2        0 2099.24266E+03   676.100     0.000  1179.673   529.609    54.622   102.521     9.651    37.403    79.222    19.159    32.954     4.018     0.001     0.004     2.842    28.925     0.440     0.011 .00000E+00 0.000E+00 0.000E+00 0.000E+00 0.000E+00 0.000E+00
BIGSUB   3        0 2099.16038E+03   858.000     0.000  1172.565   480.557    48.335   216.409    71.777   146.703   309.087    65.558    33.166     4.291     0.028     0.016     3.998    81.921     0.326     0.023 .00000E+00 0.000E+00 0.000E+00 0.000E+00 0.000E+00 0.000E+00
BIGSUB   4        0 2099.74275E+03  1325.100     0.000  1236.805   588.100    50.559   377.223   178.882   289.568   664.155   290.077    34.494     4.332     0.125     0.006     3.275   180.084     1.332     0.451 .00000E+00 0.000E+00 0.000E+00 0.000E+00 0.000E+00 0.000E+00
BIGSUB   5        0 2099.24150E+03   676.100     0.000  1190.632   545.556    79.071    65.695    13.489    18.090    66.557     9.322    21.064     2.567     0.054     0.007     2.002    32.855     0.663     0.008 .00000E+00 0.000E+00 0.000E+00 0.000E+00 0.000E+00 0.000E+00
BIGSUB   6        0 2099.36594E+03  1325.100     0.000  1234.481   591.506    49.705   534.173   163.383   419.013   691.882   433.141    54.122     6.740     0.070     0.004     3.866    87.357     1.478     0.729 .00000E+00 0.000E+00 0.000E+00 0.000E+00 0.000E+00 0.000E+00
BIGSUB   7        0 2099.12040E+03   676.100     0.000  1169.266   523.026    46.669   111.661     9.723    42.715    86.033    26.200    35.900     4.393     0.001     0.001     2.763    30.076     0.813     0.030 .00000E+00 0.000E+00 0.000E+00 0.000E+00 0.000E+00 0.000E+00
BIGSUB   8        0 2099.40121E+03   835.200     0.000  1136.279   506.612    73.781   237.665    26.628   151.922   251.132     6.531    24.963     3.093     0.002     0.014     2.377    63.588     0.377     0.083 .00000E+00 0.000E+00 0.000E+00 0.000E+00 0.000E+00 0.000E+00
BIGSUB   9        0 2099.39891E+03   836.600     0.000  1035.401   580.029    86.552   137.755    28.246    59.348   168.604     0.631     6.639     0.686     0.194     0.026     0.381    76.901     2.658     0.064 .00000E+00 0.000E+00 0.000E+00 0.000E+00 0.000E+00 0.000E+00
BIGSUB  10        0 2099.40511E+03  1143.500     0.000  1343.830   596.510    48.952   311.221    97.416   208.908   455.790   162.906    29.872     3.684     0.240     0.003     2.622   137.446     1.490     0.655 .00000E+00 0.000E+00 0.000E+00 0.000E+00 0.000E+00 0.000E+00
BIGSUB  11        0 2099.21116E+03   676.100     0.000  1180.481   527.306    49.846   107.925    12.806    40.705    81.577    10.857    19.328     2.370     0.046     0.001     1.730    24.660     0.399     0.018 .00000E+00 0.000E+00 0.000E+00 0.000E+00 0.000E+00 0.000E+00
BIGSUB   1        0 23.0.31032E+03   976.457     0.000  1330.469   536.076    46.089   295.103    55.200   251.198   411.054   176.095    43.782     5.353     0.196     0.002     3.804    90.051     0.851     0.269 .00000E+00 0.000E+00 0.000E+00 0.000E+00 0.000E+00 0.000E+00
BIGSUB   2        0 23.0.24266E+03   579.578     0.000  1168.845   469.687    54.622    80.203     5.532    51.355    84.862     6.006    14.025     1.714     0.029     0.002     1.215    24.038     0.389     0.023 .00000E+00 0.000E+00 0.000E+00 0.000E+00 0.000E+00 0.000E+00
BIGSUB   3        0 23.0.16038E+03   675.339     0.000  1148.382   430.875    48.335   145.522    40.045   113.883   220.003    33.112    23.641     3.049     0.020     0.014     2.889    58.947     0.437     0.037 .00000E+00 0.000E+00 0.000E+00 0.000E+00 0.000E+00 0.000E+00
BIGSUB   4        0 23.0.74275E+03  1039.039     0.000  1223.514   548.879    50.559   269.693    84.656   229.626   463.411   102.843    26.943     3.358     0.264     0.005     3.156   135.842     1.034     0.322 .00000E+00 0.000E+00 0.000E+00 0.000E+00 0.000E+00 0.000E+00
BIGSUB   5        0 23.0.24150E+03   579.578     0.000  1179.977   486.510    79.071    55.636     8.647    28.843    68.472     2.942     9.779     1.194     0.047     0.005     0.948    28.249     0.589     0.020 .00000E+00 0.000E+00 0.000E+00 0.000E+00 0.000E+00 0.000E+00
BIGSUB   6        0 23.0.36594E+03  1039.039     0.000  1221.100   552.940    49.705   381.361    74.829   333.221   491.471   142.346    44.331     5.478     0.144     0.003     3.670    64.631     1.185     0.518 .00000E+00 0.000E+00 0.000E+00 0.000E+00 0.000E+00 0.000E+00
BIGSUB   7        0 23.0.12040E+03   579.578     0.000  1158.281   463.171    46.669    86.163     5.453    57.122    91.586     9.225    15.342     1.880     0.146     0.001     1.234    24.783     0.717     0.077 .00000E+00 0.000E+00 0.000E+00 0.000E+00 0.000E+00 0.000E+00
BIGSUB   8        0 23.0.40121E+03   677.943     0.000  1137.945   447.969    73.781   170.127    12.626   135.249   203.162     2.889    11.849     1.465     0.008     0.007     1.149    46.979     0.588     0.083 .00000E+00 0.000E+00 0.000E+00 0.000E+00 0.000E+00 0.000E+00
BIGSUB   9        0 23.0.39891E+03   701.874     0.000  1026.453   534.344    86.552    95.726    14.628    68.491   144.860     0.243     2.950     0.342     0.221     0.026     0.246    57.060     2.787     0.082 .00000E+00 0.000E+00 0.000E+00 0.000E+00 0.000E+00 0.000E+00
BIGSUB  10        0 23.0.40511E+03   976.456     0.000  1330.385   532.203    48.952   252.724    78.197   211.312   415.344   114.616    30.840     3.806     0.711     0.003     3.060   113.327     1.506     0.751 .00000E+00 0.000E+00 0.000E+00 0.000E+00 0.000E+00 0.000E+00
BIGSUB  11        0 23.0.21116E+03   579.578     0.000  1169.665   466.997    49.846    84.443     7.849    55.340    87.595     3.641     7.944     0.976     0.192     0.001     0.794    20.262     0.378     0.048 .00000E+00 0.000E+00 0.000E+00 0.000E+00 0.000E+00 0.000E+00
